xflr5 v6.59

 Calculated polar for: WORTMANN FX 63-137 AIRFOIL

 1 1 Reynolds number fixed          Mach number fixed         

 xtrf =   1.000 (top)        1.000 (bottom)
 Mach =   0.000     Re =     2.400 e 6     Ncrit =   9.000

  alpha     CL        CD       CDp       Cm    Top Xtr Bot Xtr   Cpmin    Chinge    XCp    
 ------- -------- --------- --------- -------- ------- ------- -------- --------- ---------
 -13.900  -0.5776   0.06166   0.06005  -0.1059  0.9882  0.0067  -10.1642   0.0000   0.0000   0.0000   0.0403
 -13.500  -0.1142   0.11890   0.11659  -0.1041  0.7801  0.0057  -2.6964   0.0000   0.0000   0.0000  -0.7526
 -13.400  -0.1109   0.11788   0.11556  -0.1046  0.7758  0.0059  -2.6635   0.0000   0.0000   0.0000  -0.7867
 -13.300  -0.1075   0.11687   0.11453  -0.1051  0.7712  0.0061  -2.6304   0.0000   0.0000   0.0000  -0.8231
 -13.200  -0.1043   0.11587   0.11350  -0.1055  0.7632  0.0063  -2.5996   0.0000   0.0000   0.0000  -0.8591
 -13.100  -0.1015   0.11487   0.11246  -0.1059  0.7530  0.0065  -2.5728   0.0000   0.0000   0.0000  -0.8928
 -13.000  -0.0987   0.11377   0.11133  -0.1064  0.7467  0.0067  -2.5523   0.0000   0.0000   0.0000  -0.9292
 -12.900  -0.0963   0.11257   0.11011  -0.1069  0.7423  0.0070  -2.5418   0.0000   0.0000   0.0000  -0.9644
 -12.800  -0.0940   0.11133   0.10886  -0.1075  0.7378  0.0073  -2.5374   0.0000   0.0000   0.0000  -0.9985
 -12.700  -0.0937   0.10952   0.10704  -0.1082  0.7350  0.0078  -2.5884   0.0000   0.0000   0.0000  -1.0099
 -12.600  -0.0977   0.10634   0.10388  -0.1094  0.7363  0.0082  -2.7665   0.0000   0.0000   0.0000  -0.9704
 -12.500  -0.1063   0.10207   0.09963  -0.1109  0.7408  0.0083  -3.0501   0.0000   0.0000   0.0000  -0.8883
 -11.700  -0.4549   0.01473   0.01070  -0.1861  0.7758  0.0069  -9.3709   0.0000   0.0000   0.0000  -0.1841
 -11.600  -0.4435   0.01436   0.01027  -0.1868  0.7744  0.0069  -9.2259   0.0000   0.0000   0.0000  -0.1965
 -11.500  -0.4321   0.01402   0.00987  -0.1874  0.7716  0.0069  -9.0804   0.0000   0.0000   0.0000  -0.2093
 -11.400  -0.4208   0.01370   0.00949  -0.1879  0.7676  0.0068  -8.9353   0.0000   0.0000   0.0000  -0.2225
 -11.300  -0.4096   0.01342   0.00914  -0.1884  0.7622  0.0068  -8.7916   0.0000   0.0000   0.0000  -0.2361
 -11.200  -0.3988   0.01317   0.00882  -0.1887  0.7554  0.0068  -8.6501   0.0000   0.0000   0.0000  -0.2498
 -11.100  -0.3877   0.01292   0.00851  -0.1891  0.7491  0.0068  -8.5073   0.0000   0.0000   0.0000  -0.2646
 -11.000  -0.3761   0.01268   0.00821  -0.1895  0.7456  0.0068  -8.3616   0.0000   0.0000   0.0000  -0.2812
 -10.900  -0.3645   0.01245   0.00793  -0.1899  0.7417  0.0067  -8.2164   0.0000   0.0000   0.0000  -0.2987
 -10.800  -0.3530   0.01224   0.00766  -0.1902  0.7375  0.0067  -8.0721   0.0000   0.0000   0.0000  -0.3172
 -10.700  -0.3415   0.01205   0.00741  -0.1906  0.7331  0.0067  -7.9289   0.0000   0.0000   0.0000  -0.3367
 -10.600  -0.3301   0.01187   0.00717  -0.1909  0.7284  0.0067  -7.7863   0.0000   0.0000   0.0000  -0.3575
 -10.500  -0.3185   0.01169   0.00695  -0.1912  0.7235  0.0066  -7.6435   0.0000   0.0000   0.0000  -0.3801
 -10.400  -0.3067   0.01151   0.00673  -0.1915  0.7207  0.0066  -7.4995   0.0000   0.0000   0.0000  -0.4052
 -10.300  -0.2946   0.01134   0.00651  -0.1919  0.7196  0.0066  -7.3549   0.0000   0.0000   0.0000  -0.4329
 -10.200  -0.2825   0.01116   0.00631  -0.1923  0.7185  0.0066  -7.2111   0.0000   0.0000   0.0000  -0.4630
 -10.100  -0.2704   0.01100   0.00612  -0.1926  0.7173  0.0065  -7.0682   0.0000   0.0000   0.0000  -0.4957
 -10.000  -0.2583   0.01085   0.00593  -0.1930  0.7158  0.0065  -6.9262   0.0000   0.0000   0.0000  -0.5314
  -9.900  -0.2462   0.01070   0.00575  -0.1933  0.7139  0.0065  -6.7853   0.0000   0.0000   0.0000  -0.5706
  -9.800  -0.2342   0.01056   0.00558  -0.1936  0.7113  0.0065  -6.6456   0.0000   0.0000   0.0000  -0.6135
  -9.700  -0.2222   0.01043   0.00542  -0.1939  0.7077  0.0065  -6.5075   0.0000   0.0000   0.0000  -0.6605
  -9.600  -0.2105   0.01031   0.00526  -0.1941  0.7030  0.0064  -6.3752   0.0000   0.0000   0.0000  -0.7119
  -9.500  -0.1989   0.01021   0.00511  -0.1943  0.6976  0.0064  -6.2604   0.0000   0.0000   0.0000  -0.7685
  -9.400  -0.1872   0.01010   0.00496  -0.1945  0.6920  0.0064  -6.1460   0.0000   0.0000   0.0000  -0.8326
  -9.300  -0.1752   0.00998   0.00480  -0.1948  0.6887  0.0063  -6.0317   0.0000   0.0000   0.0000  -0.9077
  -9.200  -0.1631   0.00985   0.00465  -0.1951  0.6856  0.0063  -5.9167   0.0000   0.0000   0.0000  -0.9942
  -9.100  -0.1513   0.00974   0.00451  -0.1954  0.6805  0.0063  -5.8032   0.0000   0.0000   0.0000  -1.0926
  -9.000  -0.1397   0.00964   0.00438  -0.1956  0.6738  0.0063  -5.6914   0.0000   0.0000   0.0000  -1.2048
  -8.900  -0.1282   0.00957   0.00426  -0.1957  0.6654  0.0063  -5.5808   0.0000   0.0000   0.0000  -1.3355
  -8.800  -0.1163   0.00947   0.00414  -0.1959  0.6598  0.0063  -5.4689   0.0000   0.0000   0.0000  -1.4991
  -8.700  -0.1041   0.00938   0.00402  -0.1962  0.6570  0.0062  -5.3570   0.0000   0.0000   0.0000  -1.7041
  -8.600  -0.0922   0.00930   0.00391  -0.1964  0.6517  0.0062  -5.2467   0.0000   0.0000   0.0000  -1.9583
  -8.500  -0.0811   0.00927   0.00382  -0.1965  0.6379  0.0062  -5.1414   0.0000   0.0000   0.0000  -2.2595
  -8.400  -0.0699   0.00925   0.00373  -0.1965  0.6256  0.0062  -5.0361   0.0000   0.0000   0.0000  -2.6626
  -8.300  -0.0581   0.00919   0.00364  -0.1967  0.6194  0.0062  -4.9292   0.0000   0.0000   0.0000  -3.2518
  -8.200  -0.0463   0.00913   0.00355  -0.1969  0.6148  0.0062  -4.8228   0.0000   0.0000   0.0000  -4.1471
  -8.100  -0.0346   0.00909   0.00346  -0.1970  0.6099  0.0061  -4.7176   0.0000   0.0000   0.0000  -5.6425
  -8.000  -0.0228   0.00904   0.00338  -0.1972  0.6046  0.0061  -4.6132   0.0000   0.0000   0.0000  -8.6874
  -7.900  -0.0109   0.00899   0.00330  -0.1974  0.5993  0.0061  -4.5090   0.0000   0.0000   0.0000  -18.4498
  -7.800   0.0012   0.00892   0.00322  -0.1976  0.5967  0.0061  -4.4048   0.0000   0.0000   0.0000  170.9186
  -7.700   0.0133   0.00886   0.00314  -0.1978  0.5952  0.0061  -4.3013   0.0000   0.0000   0.0000  15.5598
  -7.600   0.0254   0.00880   0.00307  -0.1980  0.5932  0.0061  -4.1988   0.0000   0.0000   0.0000   8.2813
  -7.500   0.0374   0.00875   0.00300  -0.1982  0.5902  0.0061  -4.1182   0.0000   0.0000   0.0000   5.7055
  -7.400   0.0494   0.00870   0.00293  -0.1984  0.5860  0.0061  -4.0427   0.0000   0.0000   0.0000   4.3890
  -7.300   0.0605   0.00872   0.00289  -0.1984  0.5729  0.0061  -3.9704   0.0000   0.0000   0.0000   3.6279
  -7.200   0.0718   0.00872   0.00283  -0.1985  0.5617  0.0061  -3.8976   0.0000   0.0000   0.0000   3.0946
  -7.100   0.0835   0.00870   0.00278  -0.1986  0.5560  0.0061  -3.8237   0.0000   0.0000   0.0000   2.6958
  -7.000   0.0952   0.00868   0.00273  -0.1987  0.5504  0.0061  -3.7502   0.0000   0.0000   0.0000   2.3964
  -6.900   0.1071   0.00865   0.00267  -0.1989  0.5477  0.0062  -3.6760   0.0000   0.0000   0.0000   2.1587
  -6.800   0.1187   0.00863   0.00262  -0.1990  0.5422  0.0062  -3.6035   0.0000   0.0000   0.0000   1.9717
  -6.700   0.1305   0.00861   0.00258  -0.1991  0.5361  0.0062  -3.5310   0.0000   0.0000   0.0000   1.8170
  -6.600   0.1424   0.00858   0.00253  -0.1993  0.5322  0.0062  -3.4583   0.0000   0.0000   0.0000   1.6860
  -6.500   0.1545   0.00854   0.00248  -0.1995  0.5307  0.0061  -3.3857   0.0000   0.0000   0.0000   1.5746
  -6.400   0.1665   0.00850   0.00244  -0.1997  0.5288  0.0061  -3.3136   0.0000   0.0000   0.0000   1.4795
  -6.300   0.1784   0.00847   0.00240  -0.1998  0.5258  0.0061  -3.2419   0.0000   0.0000   0.0000   1.3976
  -6.100   0.2008   0.00853   0.00237  -0.1999  0.5018  0.0061  -3.1036   0.0000   0.0000   0.0000   1.2694
  -6.000   0.2123   0.00854   0.00234  -0.1999  0.4942  0.0061  -3.0326   0.0000   0.0000   0.0000   1.2140
  -5.900   0.2238   0.00854   0.00232  -0.2000  0.4882  0.0060  -2.9595   0.0000   0.0000   0.0000   1.1643
  -5.800   0.2352   0.00856   0.00231  -0.2001  0.4822  0.0060  -2.8837   0.0000   0.0000   0.0000   1.1199
  -5.700   0.2465   0.00859   0.00232  -0.2001  0.4759  0.0060  -2.7997   0.0000   0.0000   0.0000   1.0798
  -5.600   0.2571   0.00868   0.00244  -0.2000  0.4692  0.0060  -2.6670   0.0000   0.0000   0.0000   1.0448
  -5.500   0.2687   0.00868   0.00247  -0.2001  0.4664  0.0060  -2.5831   0.0000   0.0000   0.0000   1.0105
  -5.400   0.2806   0.00866   0.00245  -0.2002  0.4647  0.0060  -2.5147   0.0000   0.0000   0.0000   0.9785
  -5.300   0.2924   0.00864   0.00243  -0.2004  0.4622  0.0060  -2.4488   0.0000   0.0000   0.0000   0.9492
  -5.200   0.3043   0.00862   0.00240  -0.2005  0.4596  0.0060  -2.3849   0.0000   0.0000   0.0000   0.9221
  -5.100   0.3152   0.00868   0.00241  -0.2005  0.4443  0.0060  -2.3256   0.0000   0.0000   0.0000   0.8985
  -5.000   0.3262   0.00874   0.00240  -0.2005  0.4314  0.0060  -2.2673   0.0000   0.0000   0.0000   0.8763
  -4.900   0.3378   0.00874   0.00238  -0.2006  0.4261  0.0060  -2.2088   0.0000   0.0000   0.0000   0.8548
  -4.800   0.3494   0.00875   0.00236  -0.2007  0.4209  0.0060  -2.1516   0.0000   0.0000   0.0000   0.8348
  -4.700   0.3609   0.00876   0.00234  -0.2007  0.4155  0.0060  -2.0958   0.0000   0.0000   0.0000   0.8161
  -4.600   0.3725   0.00876   0.00232  -0.2008  0.4095  0.0060  -2.0409   0.0000   0.0000   0.0000   0.7985
  -4.500   0.3843   0.00875   0.00229  -0.2010  0.4040  0.0060  -1.9868   0.0000   0.0000   0.0000   0.7818
  -4.400   0.3963   0.00873   0.00225  -0.2011  0.4016  0.0060  -1.9342   0.0000   0.0000   0.0000   0.7659
  -4.300   0.4083   0.00871   0.00222  -0.2013  0.4003  0.0060  -1.8816   0.0000   0.0000   0.0000   0.7509
  -4.200   0.4203   0.00869   0.00219  -0.2015  0.3986  0.0061  -1.8301   0.0000   0.0000   0.0000   0.7368
  -4.100   0.4322   0.00867   0.00217  -0.2016  0.3960  0.0061  -1.7797   0.0000   0.0000   0.0000   0.7236
  -3.900   0.4572   0.00858   0.00196  -0.2022  0.3718  0.0138  -1.8877   0.0000   0.0000   0.0000   0.6986
  -3.800   0.4685   0.00861   0.00198  -0.2022  0.3663  0.0145  -1.8099   0.0000   0.0000   0.0000   0.6876
  -3.700   0.4797   0.00865   0.00201  -0.2022  0.3619  0.0150  -1.7272   0.0000   0.0000   0.0000   0.6773
  -3.600   0.4906   0.00871   0.00206  -0.2022  0.3577  0.0155  -1.6415   0.0000   0.0000   0.0000   0.6674
  -3.500   0.5015   0.00877   0.00211  -0.2022  0.3533  0.0159  -1.5566   0.0000   0.0000   0.0000   0.6581
  -3.400   0.5126   0.00882   0.00216  -0.2022  0.3488  0.0162  -1.4751   0.0000   0.0000   0.0000   0.6491
  -3.300   0.5238   0.00886   0.00222  -0.2022  0.3436  0.0165  -1.3975   0.0000   0.0000   0.0000   0.6404
  -3.200   0.5351   0.00888   0.00227  -0.2022  0.3396  0.0167  -1.3223   0.0000   0.0000   0.0000   0.6321
  -3.100   0.5461   0.00893   0.00236  -0.2022  0.3385  0.0170  -1.2404   0.0000   0.0000   0.0000   0.6242
  -1.500   0.7273   0.00954   0.00234  -0.2030  0.2256  0.0190  -0.9692   0.0000   0.0000   0.0000   0.5296
  -1.400   0.7389   0.00956   0.00234  -0.2031  0.2222  0.0189  -0.9782   0.0000   0.0000   0.0000   0.5251
  -1.300   0.7506   0.00956   0.00233  -0.2032  0.2216  0.0188  -0.9870   0.0000   0.0000   0.0000   0.5208
  -1.200   0.7623   0.00957   0.00233  -0.2032  0.2208  0.0188  -0.9959   0.0000   0.0000   0.0000   0.5166
  -1.100   0.7739   0.00958   0.00233  -0.2033  0.2200  0.0190  -1.0051   0.0000   0.0000   0.0000   0.5126
  -1.000   0.7856   0.00959   0.00233  -0.2034  0.2190  0.0192  -1.0155   0.0000   0.0000   0.0000   0.5086
  -0.900   0.7972   0.00961   0.00233  -0.2035  0.2175  0.0195  -1.0261   0.0000   0.0000   0.0000   0.5048
  -0.800   0.8088   0.00962   0.00234  -0.2036  0.2165  0.0197  -1.0367   0.0000   0.0000   0.0000   0.5011
  -0.700   0.8190   0.00975   0.00241  -0.2034  0.2013  0.0198  -1.0499   0.0000   0.0000   0.0000   0.4976
  -0.600   0.8298   0.00983   0.00245  -0.2034  0.1939  0.0199  -1.0612   0.0000   0.0000   0.0000   0.4941
  -0.500   0.8411   0.00987   0.00247  -0.2034  0.1913  0.0198  -1.0719   0.0000   0.0000   0.0000   0.4907
  -0.400   0.8522   0.00992   0.00250  -0.2034  0.1881  0.0197  -1.0828   0.0000   0.0000   0.0000   0.4874
  -0.300   0.8630   0.00999   0.00254  -0.2033  0.1833  0.0196  -1.0940   0.0000   0.0000   0.0000   0.4842
  -0.200   0.8740   0.01006   0.00257  -0.2033  0.1771  0.0194  -1.1050   0.0000   0.0000   0.0000   0.4811
  -0.100   0.8851   0.01010   0.00260  -0.2033  0.1714  0.0193  -1.1157   0.0000   0.0000   0.0000   0.4780
   0.000   0.8965   0.01013   0.00262  -0.2034  0.1700  0.0192  -1.1261   0.0000   0.0000   0.0000   0.4750


