xflr5 v6.59

 Calculated polar for: WORTMANN FX 63-137 AIRFOIL

 1 1 Reynolds number fixed          Mach number fixed         

 xtrf =   1.000 (top)        1.000 (bottom)
 Mach =   0.000     Re =     2.800 e 6     Ncrit =   9.000

  alpha     CL        CD       CDp       Cm    Top Xtr Bot Xtr   Cpmin    Chinge    XCp    
 ------- -------- --------- --------- -------- ------- ------- -------- --------- ---------
 -15.600  -0.1421   0.15442   0.15234  -0.0919  0.8222  0.0045  -1.5372   0.0000   0.0000   0.0000  -0.4750
 -15.500  -0.1395   0.15318   0.15104  -0.0923  0.8100  0.0045  -1.5466   0.0000   0.0000   0.0000  -0.4909
 -15.400  -0.1370   0.15192   0.14974  -0.0927  0.8012  0.0045  -1.5569   0.0000   0.0000   0.0000  -0.5073
 -15.300  -0.1344   0.15064   0.14843  -0.0932  0.7949  0.0045  -1.5682   0.0000   0.0000   0.0000  -0.5250
 -15.200  -0.1320   0.14936   0.14713  -0.0937  0.7885  0.0045  -1.5810   0.0000   0.0000   0.0000  -0.5426
 -15.100  -0.1296   0.14808   0.14581  -0.0941  0.7815  0.0045  -1.5960   0.0000   0.0000   0.0000  -0.5600
 -15.000  -0.1272   0.14672   0.14443  -0.0946  0.7766  0.0045  -1.6154   0.0000   0.0000   0.0000  -0.5786
 -14.900  -0.1253   0.14515   0.14285  -0.0952  0.7735  0.0044  -1.6552   0.0000   0.0000   0.0000  -0.5955
 -13.300  -0.0998   0.11893   0.11642  -0.1043  0.7124  0.0045  -2.4816   0.0000   0.0000   0.0000  -0.8973
 -13.200  -0.0965   0.11795   0.11540  -0.1047  0.7023  0.0045  -2.4503   0.0000   0.0000   0.0000  -0.9395
 -13.100  -0.0933   0.11700   0.11440  -0.1051  0.6903  0.0045  -2.4187   0.0000   0.0000   0.0000  -0.9833
 -13.000  -0.0898   0.11601   0.11338  -0.1055  0.6849  0.0045  -2.3859   0.0000   0.0000   0.0000  -1.0347
 -12.900  -0.0864   0.11502   0.11238  -0.1060  0.6803  0.0046  -2.3527   0.0000   0.0000   0.0000  -1.0908
 -12.800  -0.0829   0.11405   0.11138  -0.1064  0.6756  0.0046  -2.3194   0.0000   0.0000   0.0000  -1.1508
 -12.700  -0.0795   0.11308   0.11039  -0.1068  0.6709  0.0046  -2.2863   0.0000   0.0000   0.0000  -1.2156
 -12.600  -0.0760   0.11210   0.10939  -0.1073  0.6669  0.0046  -2.2543   0.0000   0.0000   0.0000  -1.2871
 -12.100  -0.0780   0.10086   0.09818  -0.1121  0.6598  0.0100  -2.6615   0.0000   0.0000   0.0000  -1.3099
 -12.000  -0.0744   0.09980   0.09712  -0.1126  0.6589  0.0100  -2.6391   0.0000   0.0000   0.0000  -1.3920
 -11.900  -0.0706   0.09877   0.09609  -0.1131  0.6579  0.0100  -2.6135   0.0000   0.0000   0.0000  -1.4854
 -11.800  -0.0667   0.09778   0.09510  -0.1136  0.6566  0.0100  -2.5854   0.0000   0.0000   0.0000  -1.5919
 -11.700  -0.0628   0.09681   0.09412  -0.1141  0.6549  0.0100  -2.5554   0.0000   0.0000   0.0000  -1.7133
  -9.600  -0.2097   0.01007   0.00502  -0.1947  0.6733  0.0065  -6.3766   0.0000   0.0000   0.0000  -0.7182
  -9.500  -0.1978   0.00996   0.00488  -0.1949  0.6702  0.0065  -6.2517   0.0000   0.0000   0.0000  -0.7772
  -9.400  -0.1858   0.00985   0.00473  -0.1952  0.6668  0.0064  -6.1359   0.0000   0.0000   0.0000  -0.8441
  -9.300  -0.1739   0.00975   0.00458  -0.1954  0.6604  0.0064  -6.0221   0.0000   0.0000   0.0000  -0.9195
  -9.200  -0.1618   0.00963   0.00444  -0.1957  0.6577  0.0064  -5.9066   0.0000   0.0000   0.0000  -1.0082
  -9.100  -0.1499   0.00952   0.00431  -0.1960  0.6518  0.0063  -5.7929   0.0000   0.0000   0.0000  -1.1094
  -8.600  -0.0928   0.00923   0.00375  -0.1967  0.5951  0.0062  -5.2469   0.0000   0.0000   0.0000  -1.9476
  -8.500  -0.0806   0.00915   0.00365  -0.1969  0.5930  0.0062  -5.1365   0.0000   0.0000   0.0000  -2.2802
  -8.400  -0.0686   0.00908   0.00356  -0.1971  0.5899  0.0062  -5.0274   0.0000   0.0000   0.0000  -2.7270
  -8.300  -0.0565   0.00901   0.00347  -0.1974  0.5874  0.0062  -4.9189   0.0000   0.0000   0.0000  -3.3662
  -8.100  -0.0342   0.00900   0.00333  -0.1975  0.5591  0.0061  -4.7134   0.0000   0.0000   0.0000  -5.7220
  -8.000  -0.0224   0.00896   0.00325  -0.1976  0.5534  0.0061  -4.6090   0.0000   0.0000   0.0000  -8.8552
  -7.900  -0.0107   0.00893   0.00318  -0.1977  0.5477  0.0061  -4.5057   0.0000   0.0000   0.0000  -18.7581
  -7.800   0.0009   0.00890   0.00311  -0.1979  0.5417  0.0061  -4.4033   0.0000   0.0000   0.0000  215.8922
  -7.700   0.0128   0.00886   0.00305  -0.1980  0.5351  0.0060  -4.3011   0.0000   0.0000   0.0000  16.2386
  -7.600   0.0248   0.00881   0.00298  -0.1982  0.5320  0.0060  -4.2076   0.0000   0.0000   0.0000   8.4795
  -7.500   0.0369   0.00875   0.00291  -0.1984  0.5304  0.0060  -4.1311   0.0000   0.0000   0.0000   5.7860
  -7.400   0.0490   0.00870   0.00285  -0.1986  0.5283  0.0060  -4.0553   0.0000   0.0000   0.0000   4.4253
  -7.300   0.0610   0.00866   0.00279  -0.1988  0.5250  0.0060  -3.9802   0.0000   0.0000   0.0000   3.6067
  -7.200   0.0728   0.00863   0.00274  -0.1990  0.5197  0.0059  -3.9060   0.0000   0.0000   0.0000   3.0627
  -7.100   0.0833   0.00870   0.00272  -0.1989  0.4983  0.0059  -3.8365   0.0000   0.0000   0.0000   2.7055
  -7.000   0.0950   0.00869   0.00267  -0.1990  0.4920  0.0059  -3.7632   0.0000   0.0000   0.0000   2.4039
  -6.900   0.1069   0.00866   0.00261  -0.1992  0.4895  0.0060  -3.6889   0.0000   0.0000   0.0000   2.1643
  -6.800   0.1185   0.00865   0.00257  -0.1993  0.4840  0.0060  -3.6164   0.0000   0.0000   0.0000   1.9767
  -6.700   0.1301   0.00865   0.00254  -0.1994  0.4780  0.0060  -3.5445   0.0000   0.0000   0.0000   1.8231
  -6.600   0.1418   0.00864   0.00250  -0.1995  0.4713  0.0060  -3.4724   0.0000   0.0000   0.0000   1.6935
  -6.500   0.1537   0.00861   0.00246  -0.1996  0.4669  0.0060  -3.4000   0.0000   0.0000   0.0000   1.5820
  -6.400   0.1658   0.00858   0.00242  -0.1998  0.4654  0.0060  -3.3277   0.0000   0.0000   0.0000   1.4860
  -6.300   0.1777   0.00855   0.00238  -0.2000  0.4635  0.0060  -3.2559   0.0000   0.0000   0.0000   1.4031
  -6.200   0.1897   0.00852   0.00235  -0.2001  0.4608  0.0060  -3.1848   0.0000   0.0000   0.0000   1.3309
  -6.100   0.2015   0.00850   0.00232  -0.2003  0.4573  0.0059  -3.1141   0.0000   0.0000   0.0000   1.2676
  -6.000   0.2118   0.00861   0.00233  -0.2001  0.4339  0.0059  -3.0485   0.0000   0.0000   0.0000   1.2172
  -5.900   0.2234   0.00861   0.00231  -0.2002  0.4284  0.0059  -2.9781   0.0000   0.0000   0.0000   1.1669
  -5.800   0.2350   0.00861   0.00230  -0.2003  0.4231  0.0059  -2.9067   0.0000   0.0000   0.0000   1.1218
  -5.700   0.2464   0.00863   0.00228  -0.2004  0.4178  0.0059  -2.8337   0.0000   0.0000   0.0000   1.0811
  -5.600   0.2579   0.00865   0.00228  -0.2004  0.4123  0.0058  -2.7567   0.0000   0.0000   0.0000   1.0441
  -5.500   0.2690   0.00870   0.00234  -0.2004  0.4062  0.0058  -2.6458   0.0000   0.0000   0.0000   1.0111
  -5.400   0.2800   0.00874   0.00243  -0.2004  0.4022  0.0058  -2.5361   0.0000   0.0000   0.0000   0.9805
  -5.300   0.2919   0.00872   0.00241  -0.2005  0.4011  0.0058  -2.4689   0.0000   0.0000   0.0000   0.9509
  -5.200   0.3039   0.00870   0.00239  -0.2007  0.3997  0.0058  -2.4041   0.0000   0.0000   0.0000   0.9237
  -5.100   0.3158   0.00868   0.00237  -0.2008  0.3978  0.0058  -2.3414   0.0000   0.0000   0.0000   0.8985
  -5.000   0.3277   0.00866   0.00234  -0.2010  0.3960  0.0058  -2.2803   0.0000   0.0000   0.0000   0.8751
  -4.900   0.3389   0.00870   0.00234  -0.2010  0.3849  0.0058  -2.2227   0.0000   0.0000   0.0000   0.8542
  -4.800   0.3497   0.00877   0.00235  -0.2010  0.3689  0.0058  -2.1678   0.0000   0.0000   0.0000   0.8352
  -4.700   0.3614   0.00877   0.00233  -0.2011  0.3643  0.0057  -2.1117   0.0000   0.0000   0.0000   0.8163
  -4.600   0.3731   0.00878   0.00231  -0.2012  0.3599  0.0057  -2.0570   0.0000   0.0000   0.0000   0.7986
  -4.500   0.3847   0.00878   0.00229  -0.2013  0.3555  0.0057  -2.0038   0.0000   0.0000   0.0000   0.7821
  -4.400   0.3963   0.00879   0.00225  -0.2014  0.3506  0.0057  -1.9527   0.0000   0.0000   0.0000   0.7665
  -4.300   0.4081   0.00879   0.00223  -0.2015  0.3453  0.0057  -1.9016   0.0000   0.0000   0.0000   0.7517
  -4.200   0.4199   0.00878   0.00221  -0.2016  0.3407  0.0058  -1.8515   0.0000   0.0000   0.0000   0.7377
  -4.100   0.4319   0.00876   0.00218  -0.2018  0.3388  0.0058  -1.8027   0.0000   0.0000   0.0000   0.7243
  -4.000   0.4440   0.00874   0.00215  -0.2020  0.3379  0.0058  -1.7556   0.0000   0.0000   0.0000   0.7116
  -3.900   0.4560   0.00872   0.00212  -0.2021  0.3369  0.0059  -1.7105   0.0000   0.0000   0.0000   0.6996
  -3.800   0.4679   0.00870   0.00210  -0.2023  0.3356  0.0061  -1.6670   0.0000   0.0000   0.0000   0.6883
  -3.700   0.4819   0.00855   0.00196  -0.2029  0.3335  0.0144  -1.7650   0.0000   0.0000   0.0000   0.6766
  -3.600   0.4936   0.00855   0.00197  -0.2030  0.3329  0.0149  -1.6891   0.0000   0.0000   0.0000   0.6665
  -3.500   0.5035   0.00870   0.00204  -0.2027  0.3129  0.0153  -1.6154   0.0000   0.0000   0.0000   0.6577
  -3.400   0.5144   0.00876   0.00209  -0.2027  0.3055  0.0156  -1.5357   0.0000   0.0000   0.0000   0.6488
  -3.300   0.5255   0.00881   0.00213  -0.2027  0.3013  0.0160  -1.4563   0.0000   0.0000   0.0000   0.6401
  -3.200   0.5366   0.00885   0.00217  -0.2027  0.2973  0.0162  -1.3804   0.0000   0.0000   0.0000   0.6319
  -3.100   0.5477   0.00890   0.00221  -0.2027  0.2931  0.0165  -1.3085   0.0000   0.0000   0.0000   0.6240
  -3.000   0.5589   0.00894   0.00225  -0.2027  0.2888  0.0167  -1.2397   0.0000   0.0000   0.0000   0.6164
  -2.900   0.5702   0.00897   0.00229  -0.2028  0.2839  0.0168  -1.1718   0.0000   0.0000   0.0000   0.6090
  -2.300   0.6398   0.00908   0.00218  -0.2033  0.2490  0.0166  -0.9246   0.0000   0.0000   0.0000   0.5698
  -2.200   0.6502   0.00920   0.00223  -0.2032  0.2373  0.0167  -0.9098   0.0000   0.0000   0.0000   0.5644
  -2.100   0.6611   0.00927   0.00226  -0.2032  0.2267  0.0169  -0.9194   0.0000   0.0000   0.0000   0.5590
  -2.000   0.6726   0.00929   0.00227  -0.2032  0.2216  0.0170  -0.9284   0.0000   0.0000   0.0000   0.5536
  -1.900   0.6842   0.00930   0.00229  -0.2033  0.2202  0.0171  -0.9373   0.0000   0.0000   0.0000   0.5485
  -1.100   0.7747   0.00960   0.00240  -0.2036  0.1858  0.0187  -1.0141   0.0000   0.0000   0.0000   0.5127
  -1.000   0.7861   0.00964   0.00241  -0.2037  0.1834  0.0187  -1.0249   0.0000   0.0000   0.0000   0.5088
  -0.900   0.7975   0.00966   0.00242  -0.2037  0.1810  0.0188  -1.0355   0.0000   0.0000   0.0000   0.5050
  -0.800   0.8090   0.00969   0.00243  -0.2038  0.1783  0.0190  -1.0461   0.0000   0.0000   0.0000   0.5013
  -0.700   0.8205   0.00971   0.00244  -0.2039  0.1754  0.0192  -1.0567   0.0000   0.0000   0.0000   0.4977
  -0.600   0.8320   0.00973   0.00245  -0.2039  0.1728  0.0194  -1.0672   0.0000   0.0000   0.0000   0.4942
  -0.500   0.8435   0.00975   0.00246  -0.2040  0.1703  0.0195  -1.0777   0.0000   0.0000   0.0000   0.4907
  -0.400   0.8550   0.00977   0.00247  -0.2041  0.1696  0.0195  -1.0881   0.0000   0.0000   0.0000   0.4874
  -0.300   0.8664   0.00980   0.00249  -0.2041  0.1684  0.0194  -1.0986   0.0000   0.0000   0.0000   0.4842
  -0.200   0.8778   0.00982   0.00251  -0.2041  0.1670  0.0193  -1.1091   0.0000   0.0000   0.0000   0.4810
  -0.100   0.8891   0.00986   0.00254  -0.2042  0.1653  0.0191  -1.1195   0.0000   0.0000   0.0000   0.4779


