xflr5 v6.59

 Calculated polar for: WORTMANN FX 63-137 AIRFOIL

 1 1 Reynolds number fixed          Mach number fixed         

 xtrf =   1.000 (top)        1.000 (bottom)
 Mach =   0.000     Re =     3.100 e 6     Ncrit =   9.000

  alpha     CL        CD       CDp       Cm    Top Xtr Bot Xtr   Cpmin    Chinge    XCp    
 ------- -------- --------- --------- -------- ------- ------- -------- --------- ---------
 -12.300  -0.0952   0.10126   0.09861  -0.1122  0.6488  0.0109  -2.8303   0.0000   0.0000   0.0000  -1.0316
 -12.200  -0.0926   0.10015   0.09748  -0.1127  0.6405  0.0110  -2.8165   0.0000   0.0000   0.0000  -1.0708
 -12.100  -0.0899   0.09912   0.09641  -0.1131  0.6304  0.0110  -2.7964   0.0000   0.0000   0.0000  -1.1144
 -12.000  -0.0868   0.09809   0.09535  -0.1136  0.6256  0.0111  -2.7718   0.0000   0.0000   0.0000  -1.1679
 -11.900  -0.0836   0.09709   0.09434  -0.1141  0.6216  0.0112  -2.7441   0.0000   0.0000   0.0000  -1.2277
 -11.800  -0.0802   0.09615   0.09339  -0.1145  0.6176  0.0113  -2.7119   0.0000   0.0000   0.0000  -1.2956
 -11.700  -0.0767   0.09524   0.09246  -0.1150  0.6135  0.0113  -2.6781   0.0000   0.0000   0.0000  -1.3703
 -11.600  -0.0731   0.09435   0.09155  -0.1154  0.6093  0.0114  -2.6431   0.0000   0.0000   0.0000  -1.4528
 -11.500  -0.0696   0.09347   0.09065  -0.1158  0.6050  0.0115  -2.6069   0.0000   0.0000   0.0000  -1.5454
 -11.400  -0.0659   0.09260   0.08977  -0.1163  0.6003  0.0116  -2.5697   0.0000   0.0000   0.0000  -1.6505
 -11.300  -0.0621   0.09173   0.08890  -0.1167  0.5973  0.0117  -2.5315   0.0000   0.0000   0.0000  -1.7717
 -11.200  -0.0583   0.09087   0.08804  -0.1172  0.5962  0.0118  -2.4926   0.0000   0.0000   0.0000  -1.9111
 -11.100  -0.0544   0.09003   0.08719  -0.1176  0.5949  0.0119  -2.4528   0.0000   0.0000   0.0000  -2.0711
 -11.000  -0.0505   0.08921   0.08637  -0.1181  0.5933  0.0120  -2.4123   0.0000   0.0000   0.0000  -2.2568
 -10.900  -0.0466   0.08839   0.08555  -0.1185  0.5908  0.0122  -2.3712   0.0000   0.0000   0.0000  -2.4758
  -9.300  -0.1732   0.00962   0.00446  -0.1958  0.6378  0.0065  -6.0163   0.0000   0.0000   0.0000  -0.9268
  -9.200  -0.1624   0.00959   0.00434  -0.1958  0.6187  0.0064  -5.9077   0.0000   0.0000   0.0000  -1.0042
  -9.100  -0.1515   0.00956   0.00423  -0.1959  0.6027  0.0064  -5.7991   0.0000   0.0000   0.0000  -1.0939
  -9.000  -0.1395   0.00946   0.00410  -0.1961  0.5953  0.0064  -5.6859   0.0000   0.0000   0.0000  -1.2102
  -8.900  -0.1275   0.00936   0.00398  -0.1964  0.5891  0.0063  -5.5732   0.0000   0.0000   0.0000  -1.3489
  -8.800  -0.1170   0.00936   0.00389  -0.1964  0.5654  0.0063  -5.4684   0.0000   0.0000   0.0000  -1.4920
  -8.700  -0.1052   0.00929   0.00378  -0.1966  0.5577  0.0063  -5.3582   0.0000   0.0000   0.0000  -1.6876
  -8.600  -0.0934   0.00923   0.00368  -0.1968  0.5519  0.0063  -5.2487   0.0000   0.0000   0.0000  -1.9330
  -8.500  -0.0817   0.00918   0.00359  -0.1969  0.5459  0.0062  -5.1404   0.0000   0.0000   0.0000  -2.2466
  -8.400  -0.0700   0.00914   0.00350  -0.1971  0.5393  0.0062  -5.0327   0.0000   0.0000   0.0000  -2.6668
  -8.300  -0.0580   0.00908   0.00342  -0.1973  0.5335  0.0062  -4.9247   0.0000   0.0000   0.0000  -3.2705
  -8.200  -0.0459   0.00901   0.00333  -0.1975  0.5315  0.0062  -4.8168   0.0000   0.0000   0.0000  -4.2048
  -8.100  -0.0337   0.00894   0.00325  -0.1978  0.5298  0.0061  -4.7098   0.0000   0.0000   0.0000  -5.8098
  -8.000  -0.0217   0.00888   0.00317  -0.1980  0.5274  0.0061  -4.6039   0.0000   0.0000   0.0000  -9.1923
  -7.800   0.0014   0.00885   0.00305  -0.1982  0.5092  0.0061  -4.3997   0.0000   0.0000   0.0000  146.0027
  -7.700   0.0127   0.00885   0.00300  -0.1982  0.4962  0.0060  -4.3000   0.0000   0.0000   0.0000  16.3594
  -7.600   0.0244   0.00883   0.00294  -0.1984  0.4900  0.0060  -4.2157   0.0000   0.0000   0.0000   8.6310
  -7.500   0.0360   0.00881   0.00288  -0.1985  0.4838  0.0060  -4.1408   0.0000   0.0000   0.0000   5.9274
  -7.400   0.0477   0.00880   0.00283  -0.1986  0.4774  0.0060  -4.0663   0.0000   0.0000   0.0000   4.5428
  -7.300   0.0594   0.00877   0.00278  -0.1987  0.4704  0.0059  -3.9917   0.0000   0.0000   0.0000   3.6924
  -7.200   0.0715   0.00873   0.00273  -0.1989  0.4667  0.0059  -3.9169   0.0000   0.0000   0.0000   3.1149
  -7.100   0.0835   0.00869   0.00267  -0.1991  0.4651  0.0059  -3.8422   0.0000   0.0000   0.0000   2.7023
  -7.000   0.0955   0.00865   0.00262  -0.1993  0.4630  0.0059  -3.7681   0.0000   0.0000   0.0000   2.3949
  -6.900   0.1076   0.00861   0.00256  -0.1995  0.4619  0.0059  -3.6936   0.0000   0.0000   0.0000   2.1553
  -6.400   0.1650   0.00865   0.00243  -0.1998  0.4213  0.0059  -3.3368   0.0000   0.0000   0.0000   1.4917
  -6.300   0.1766   0.00865   0.00240  -0.1999  0.4160  0.0059  -3.2661   0.0000   0.0000   0.0000   1.4104
  -6.200   0.1883   0.00865   0.00238  -0.2000  0.4103  0.0059  -3.1955   0.0000   0.0000   0.0000   1.3385
  -6.100   0.2001   0.00864   0.00235  -0.2002  0.4045  0.0059  -3.1250   0.0000   0.0000   0.0000   1.2746
  -6.000   0.2120   0.00861   0.00232  -0.2003  0.4018  0.0059  -3.0543   0.0000   0.0000   0.0000   1.2171
  -5.900   0.2240   0.00859   0.00229  -0.2005  0.4007  0.0058  -2.9833   0.0000   0.0000   0.0000   1.1658
  -5.800   0.2359   0.00857   0.00227  -0.2006  0.3992  0.0058  -2.9117   0.0000   0.0000   0.0000   1.1198
  -5.700   0.2478   0.00855   0.00225  -0.2008  0.3970  0.0058  -2.8392   0.0000   0.0000   0.0000   1.0784
  -5.500   0.2700   0.00864   0.00227  -0.2008  0.3768  0.0057  -2.6885   0.0000   0.0000   0.0000   1.0094
  -5.400   0.2802   0.00876   0.00243  -0.2006  0.3676  0.0057  -2.5442   0.0000   0.0000   0.0000   0.9809
  -5.300   0.2918   0.00877   0.00242  -0.2006  0.3631  0.0057  -2.4777   0.0000   0.0000   0.0000   0.9518
  -5.200   0.3033   0.00878   0.00241  -0.2007  0.3588  0.0057  -2.4137   0.0000   0.0000   0.0000   0.9251
  -5.100   0.3149   0.00879   0.00240  -0.2008  0.3544  0.0057  -2.3518   0.0000   0.0000   0.0000   0.9003
  -5.000   0.3265   0.00879   0.00238  -0.2009  0.3497  0.0057  -2.2914   0.0000   0.0000   0.0000   0.8771
  -4.900   0.3383   0.00879   0.00236  -0.2010  0.3446  0.0056  -2.2324   0.0000   0.0000   0.0000   0.8555
  -4.800   0.3502   0.00877   0.00233  -0.2012  0.3402  0.0056  -2.1746   0.0000   0.0000   0.0000   0.8351
  -4.700   0.3622   0.00875   0.00231  -0.2014  0.3387  0.0056  -2.1179   0.0000   0.0000   0.0000   0.8159
  -4.600   0.3742   0.00872   0.00228  -0.2015  0.3378  0.0056  -2.0626   0.0000   0.0000   0.0000   0.7980
  -4.500   0.3862   0.00870   0.00225  -0.2017  0.3368  0.0056  -2.0088   0.0000   0.0000   0.0000   0.7811
  -4.400   0.3982   0.00868   0.00221  -0.2018  0.3353  0.0056  -1.9573   0.0000   0.0000   0.0000   0.7653
  -4.300   0.4101   0.00866   0.00218  -0.2020  0.3337  0.0056  -1.9062   0.0000   0.0000   0.0000   0.7504
  -4.200   0.4222   0.00864   0.00215  -0.2022  0.3331  0.0056  -1.8565   0.0000   0.0000   0.0000   0.7363
  -4.100   0.4324   0.00877   0.00218  -0.2020  0.3089  0.0056  -1.8126   0.0000   0.0000   0.0000   0.7243
  -4.000   0.4441   0.00877   0.00216  -0.2021  0.3044  0.0056  -1.7674   0.0000   0.0000   0.0000   0.7118
  -3.900   0.4558   0.00878   0.00214  -0.2022  0.3003  0.0057  -1.7250   0.0000   0.0000   0.0000   0.7000
  -3.800   0.4678   0.00877   0.00209  -0.2024  0.2963  0.0058  -1.7090   0.0000   0.0000   0.0000   0.6886
  -3.700   0.4810   0.00867   0.00201  -0.2028  0.2920  0.0139  -1.7859   0.0000   0.0000   0.0000   0.6773
  -3.600   0.4924   0.00870   0.00202  -0.2029  0.2877  0.0144  -1.7169   0.0000   0.0000   0.0000   0.6673
  -3.500   0.5039   0.00872   0.00203  -0.2029  0.2828  0.0149  -1.6454   0.0000   0.0000   0.0000   0.6577
  -3.400   0.5154   0.00873   0.00205  -0.2030  0.2792  0.0152  -1.5704   0.0000   0.0000   0.0000   0.6486
  -3.300   0.5269   0.00875   0.00207  -0.2031  0.2782  0.0156  -1.4927   0.0000   0.0000   0.0000   0.6398
  -3.200   0.5384   0.00877   0.00210  -0.2031  0.2774  0.0159  -1.4152   0.0000   0.0000   0.0000   0.6315
  -3.100   0.5498   0.00878   0.00213  -0.2032  0.2765  0.0162  -1.3404   0.0000   0.0000   0.0000   0.6234
  -3.000   0.5614   0.00880   0.00215  -0.2033  0.2753  0.0164  -1.2696   0.0000   0.0000   0.0000   0.6157
  -2.900   0.5729   0.00881   0.00217  -0.2034  0.2740  0.0166  -1.2027   0.0000   0.0000   0.0000   0.6083
  -2.800   0.5846   0.00881   0.00219  -0.2035  0.2735  0.0167  -1.1391   0.0000   0.0000   0.0000   0.6012
  -2.700   0.5945   0.00897   0.00227  -0.2033  0.2514  0.0168  -1.0834   0.0000   0.0000   0.0000   0.5949
  -2.600   0.6058   0.00899   0.00229  -0.2033  0.2471  0.0169  -1.0264   0.0000   0.0000   0.0000   0.5883
  -2.400   0.6293   0.00901   0.00223  -0.2036  0.2409  0.0168  -0.9504   0.0000   0.0000   0.0000   0.5757
  -2.300   0.6406   0.00908   0.00217  -0.2036  0.2222  0.0164  -0.9508   0.0000   0.0000   0.0000   0.5698
  -2.200   0.6521   0.00910   0.00218  -0.2036  0.2198  0.0165  -0.9130   0.0000   0.0000   0.0000   0.5641
  -2.100   0.6636   0.00912   0.00220  -0.2037  0.2173  0.0166  -0.9219   0.0000   0.0000   0.0000   0.5586
  -2.000   0.6734   0.00929   0.00228  -0.2035  0.1951  0.0167  -0.9308   0.0000   0.0000   0.0000   0.5536
  -1.900   0.6848   0.00932   0.00230  -0.2035  0.1920  0.0168  -0.9396   0.0000   0.0000   0.0000   0.5485
  -1.800   0.6962   0.00935   0.00231  -0.2036  0.1896  0.0169  -0.9483   0.0000   0.0000   0.0000   0.5435
  -1.700   0.7076   0.00938   0.00232  -0.2036  0.1872  0.0170  -0.9571   0.0000   0.0000   0.0000   0.5387
  -1.600   0.7190   0.00941   0.00234  -0.2037  0.1849  0.0170  -0.9658   0.0000   0.0000   0.0000   0.5340
  -0.900   0.7997   0.00953   0.00239  -0.2042  0.1700  0.0186  -1.0383   0.0000   0.0000   0.0000   0.5049
  -0.800   0.8114   0.00954   0.00239  -0.2043  0.1696  0.0187  -1.0487   0.0000   0.0000   0.0000   0.5012
  -0.700   0.8230   0.00956   0.00240  -0.2044  0.1692  0.0189  -1.0592   0.0000   0.0000   0.0000   0.4976
  -0.600   0.8346   0.00957   0.00241  -0.2045  0.1687  0.0190  -1.0696   0.0000   0.0000   0.0000   0.4941
  -0.500   0.8461   0.00959   0.00242  -0.2045  0.1677  0.0191  -1.0801   0.0000   0.0000   0.0000   0.4907
  -0.400   0.8574   0.00962   0.00244  -0.2046  0.1655  0.0192  -1.0905   0.0000   0.0000   0.0000   0.4874
  -0.300   0.8671   0.00980   0.00254  -0.2043  0.1462  0.0193  -1.1008   0.0000   0.0000   0.0000   0.4842
  -0.200   0.8782   0.00985   0.00257  -0.2043  0.1434  0.0192  -1.1111   0.0000   0.0000   0.0000   0.4811
  -0.100   0.8894   0.00989   0.00260  -0.2043  0.1414  0.0191  -1.1215   0.0000   0.0000   0.0000   0.4780
   0.000   0.9005   0.00994   0.00263  -0.2043  0.1395  0.0189  -1.1318   0.0000   0.0000   0.0000   0.4750


