xflr5 v6.59

 Calculated polar for: WORTMANN FX 63-137 AIRFOIL

 1 1 Reynolds number fixed          Mach number fixed         

 xtrf =   1.000 (top)        1.000 (bottom)
 Mach =   0.000     Re =     3.600 e 6     Ncrit =   9.000

  alpha     CL        CD       CDp       Cm    Top Xtr Bot Xtr   Cpmin    Chinge    XCp    
 ------- -------- --------- --------- -------- ------- ------- -------- --------- ---------
  -9.700   0.0124   0.08100   0.07778  -0.1223  0.4645  0.0168  -1.7749   0.0000   0.0000   0.0000  10.7282
  -9.600   0.0138   0.07953   0.07632  -0.1229  0.4636  0.0168  -1.7898   0.0000   0.0000   0.0000   9.6861
  -9.500   0.0146   0.07796   0.07475  -0.1237  0.4627  0.0168  -1.8128   0.0000   0.0000   0.0000   9.2087
  -9.400   0.0142   0.07615   0.07294  -0.1245  0.4625  0.0167  -1.8529   0.0000   0.0000   0.0000   9.5036
  -9.100  -0.1517   0.00934   0.00399  -0.1965  0.5325  0.0095  -5.7996   0.0000   0.0000   0.0000  -1.0963
  -8.500  -0.0820   0.00916   0.00349  -0.1972  0.4880  0.0064  -5.1400   0.0000   0.0000   0.0000  -2.2406
  -8.400  -0.0703   0.00913   0.00341  -0.1974  0.4817  0.0063  -5.0326   0.0000   0.0000   0.0000  -2.6549
  -8.300  -0.0586   0.00908   0.00333  -0.1975  0.4751  0.0063  -4.9256   0.0000   0.0000   0.0000  -3.2399
  -8.200  -0.0466   0.00903   0.00325  -0.1977  0.4685  0.0063  -4.8186   0.0000   0.0000   0.0000  -4.1369
  -8.100  -0.0345   0.00897   0.00317  -0.1979  0.4662  0.0062  -4.7116   0.0000   0.0000   0.0000  -5.6804
  -8.000  -0.0224   0.00891   0.00310  -0.1981  0.4646  0.0062  -4.6055   0.0000   0.0000   0.0000  -8.8908
  -7.900  -0.0103   0.00886   0.00303  -0.1983  0.4622  0.0062  -4.5005   0.0000   0.0000   0.0000  -19.5527
  -7.800   0.0018   0.00880   0.00296  -0.1985  0.4616  0.0061  -4.3959   0.0000   0.0000   0.0000  113.1524
  -7.700   0.0125   0.00886   0.00294  -0.1985  0.4412  0.0061  -4.3005   0.0000   0.0000   0.0000  16.6284
  -7.600   0.0241   0.00885   0.00288  -0.1986  0.4310  0.0061  -4.2253   0.0000   0.0000   0.0000   8.7621
  -7.500   0.0358   0.00883   0.00283  -0.1987  0.4256  0.0061  -4.1500   0.0000   0.0000   0.0000   5.9698
  -7.400   0.0475   0.00881   0.00278  -0.1989  0.4202  0.0060  -4.0752   0.0000   0.0000   0.0000   4.5637
  -7.300   0.0592   0.00880   0.00274  -0.1990  0.4147  0.0060  -4.0009   0.0000   0.0000   0.0000   3.7126
  -7.200   0.0710   0.00878   0.00269  -0.1991  0.4089  0.0060  -3.9265   0.0000   0.0000   0.0000   3.1371
  -7.100   0.0829   0.00875   0.00265  -0.1993  0.4034  0.0059  -3.8521   0.0000   0.0000   0.0000   2.7225
  -7.000   0.0950   0.00871   0.00260  -0.1994  0.4016  0.0059  -3.7778   0.0000   0.0000   0.0000   2.4098
  -6.900   0.1070   0.00867   0.00254  -0.1996  0.4012  0.0059  -3.7034   0.0000   0.0000   0.0000   2.1667
  -6.800   0.1191   0.00863   0.00250  -0.1998  0.4001  0.0059  -3.6300   0.0000   0.0000   0.0000   1.9737
  -6.700   0.1311   0.00860   0.00246  -0.2000  0.3986  0.0059  -3.5568   0.0000   0.0000   0.0000   1.8165
  -6.600   0.1431   0.00857   0.00243  -0.2001  0.3972  0.0058  -3.4839   0.0000   0.0000   0.0000   1.6857
  -6.500   0.1551   0.00854   0.00239  -0.2003  0.3967  0.0058  -3.4110   0.0000   0.0000   0.0000   1.5748
  -6.400   0.1654   0.00865   0.00241  -0.2002  0.3719  0.0058  -3.3441   0.0000   0.0000   0.0000   1.4909
  -6.300   0.1771   0.00864   0.00238  -0.2003  0.3665  0.0058  -3.2728   0.0000   0.0000   0.0000   1.4091
  -6.200   0.1888   0.00864   0.00236  -0.2004  0.3622  0.0058  -3.2017   0.0000   0.0000   0.0000   1.3375
  -6.100   0.2004   0.00864   0.00234  -0.2005  0.3578  0.0058  -3.1311   0.0000   0.0000   0.0000   1.2744
  -6.000   0.2120   0.00865   0.00232  -0.2006  0.3535  0.0058  -3.0609   0.0000   0.0000   0.0000   1.2183
  -5.900   0.2237   0.00865   0.00230  -0.2007  0.3488  0.0058  -2.9906   0.0000   0.0000   0.0000   1.1678
  -5.800   0.2355   0.00864   0.00229  -0.2008  0.3437  0.0057  -2.9198   0.0000   0.0000   0.0000   1.1221
  -5.700   0.2473   0.00863   0.00227  -0.2009  0.3397  0.0057  -2.8480   0.0000   0.0000   0.0000   1.0805
  -5.600   0.2592   0.00861   0.00225  -0.2010  0.3386  0.0057  -2.7746   0.0000   0.0000   0.0000   1.0426
  -5.500   0.2710   0.00860   0.00224  -0.2012  0.3378  0.0057  -2.6973   0.0000   0.0000   0.0000   1.0081
  -5.400   0.2816   0.00869   0.00240  -0.2010  0.3368  0.0057  -2.5430   0.0000   0.0000   0.0000   0.9788
  -5.300   0.2935   0.00868   0.00239  -0.2012  0.3355  0.0056  -2.4761   0.0000   0.0000   0.0000   0.9495
  -5.200   0.3054   0.00866   0.00237  -0.2013  0.3342  0.0056  -2.4117   0.0000   0.0000   0.0000   0.9225
  -5.100   0.3173   0.00864   0.00235  -0.2015  0.3338  0.0056  -2.3493   0.0000   0.0000   0.0000   0.8973
  -5.000   0.3276   0.00875   0.00238  -0.2013  0.3102  0.0055  -2.2934   0.0000   0.0000   0.0000   0.8763
  -4.900   0.3393   0.00876   0.00236  -0.2014  0.3049  0.0055  -2.2351   0.0000   0.0000   0.0000   0.8548
  -4.800   0.3510   0.00876   0.00234  -0.2015  0.3008  0.0055  -2.1784   0.0000   0.0000   0.0000   0.8347
  -4.700   0.3626   0.00877   0.00232  -0.2016  0.2968  0.0055  -2.1232   0.0000   0.0000   0.0000   0.8160
  -4.600   0.3743   0.00877   0.00230  -0.2017  0.2927  0.0054  -2.0694   0.0000   0.0000   0.0000   0.7984
  -4.500   0.3861   0.00877   0.00228  -0.2019  0.2884  0.0054  -2.0169   0.0000   0.0000   0.0000   0.7818
  -4.400   0.3979   0.00876   0.00224  -0.2020  0.2831  0.0054  -1.9665   0.0000   0.0000   0.0000   0.7661
  -4.300   0.4099   0.00875   0.00222  -0.2021  0.2793  0.0054  -1.9162   0.0000   0.0000   0.0000   0.7512
  -4.200   0.4219   0.00873   0.00219  -0.2023  0.2783  0.0054  -1.8675   0.0000   0.0000   0.0000   0.7371
  -4.100   0.4339   0.00871   0.00216  -0.2025  0.2775  0.0054  -1.8208   0.0000   0.0000   0.0000   0.7237
  -4.000   0.4460   0.00868   0.00212  -0.2027  0.2767  0.0054  -1.7829   0.0000   0.0000   0.0000   0.7111
  -3.900   0.4585   0.00863   0.00205  -0.2029  0.2756  0.0054  -1.7747   0.0000   0.0000   0.0000   0.6989
  -3.800   0.4705   0.00862   0.00202  -0.2031  0.2744  0.0054  -1.7419   0.0000   0.0000   0.0000   0.6875
  -3.700   0.4825   0.00860   0.00200  -0.2032  0.2741  0.0056  -1.7085   0.0000   0.0000   0.0000   0.6768
  -3.600   0.4939   0.00865   0.00203  -0.2033  0.2535  0.0139  -1.7340   0.0000   0.0000   0.0000   0.6670
  -3.500   0.5053   0.00868   0.00204  -0.2034  0.2477  0.0144  -1.6691   0.0000   0.0000   0.0000   0.6575
  -3.400   0.5168   0.00870   0.00205  -0.2034  0.2447  0.0147  -1.6028   0.0000   0.0000   0.0000   0.6484
  -3.300   0.5282   0.00873   0.00206  -0.2035  0.2417  0.0151  -1.5349   0.0000   0.0000   0.0000   0.6397
  -3.200   0.5395   0.00876   0.00208  -0.2035  0.2387  0.0154  -1.4651   0.0000   0.0000   0.0000   0.6314
  -3.100   0.5508   0.00879   0.00210  -0.2036  0.2357  0.0156  -1.3937   0.0000   0.0000   0.0000   0.6234
  -3.000   0.5622   0.00882   0.00213  -0.2036  0.2326  0.0159  -1.3224   0.0000   0.0000   0.0000   0.6158
  -2.900   0.5736   0.00885   0.00215  -0.2036  0.2295  0.0161  -1.2534   0.0000   0.0000   0.0000   0.6084
  -2.800   0.5851   0.00886   0.00216  -0.2037  0.2258  0.0163  -1.1883   0.0000   0.0000   0.0000   0.6013
  -2.700   0.5967   0.00887   0.00217  -0.2038  0.2230  0.0164  -1.1275   0.0000   0.0000   0.0000   0.5945
  -2.600   0.6084   0.00887   0.00217  -0.2039  0.2219  0.0165  -1.0717   0.0000   0.0000   0.0000   0.5879
  -2.500   0.6203   0.00887   0.00216  -0.2041  0.2214  0.0165  -1.0228   0.0000   0.0000   0.0000   0.5814
  -2.400   0.6323   0.00886   0.00213  -0.2042  0.2209  0.0164  -0.9890   0.0000   0.0000   0.0000   0.5752
  -2.300   0.6419   0.00907   0.00218  -0.2039  0.1880  0.0159  -0.9903   0.0000   0.0000   0.0000   0.5697
  -2.200   0.6529   0.00913   0.00220  -0.2039  0.1815  0.0161  -0.9339   0.0000   0.0000   0.0000   0.5642
  -2.100   0.6643   0.00915   0.00222  -0.2040  0.1784  0.0162  -0.9243   0.0000   0.0000   0.0000   0.5587
  -2.000   0.6759   0.00917   0.00223  -0.2041  0.1755  0.0164  -0.9330   0.0000   0.0000   0.0000   0.5534
  -1.900   0.6875   0.00919   0.00224  -0.2041  0.1729  0.0165  -0.9417   0.0000   0.0000   0.0000   0.5482
  -1.800   0.6991   0.00920   0.00225  -0.2042  0.1708  0.0166  -0.9504   0.0000   0.0000   0.0000   0.5432
  -1.700   0.7107   0.00921   0.00226  -0.2043  0.1701  0.0166  -0.9592   0.0000   0.0000   0.0000   0.5384
  -1.600   0.7223   0.00922   0.00226  -0.2044  0.1698  0.0167  -0.9688   0.0000   0.0000   0.0000   0.5337
  -1.500   0.7339   0.00923   0.00227  -0.2045  0.1694  0.0168  -0.9792   0.0000   0.0000   0.0000   0.5292
  -1.400   0.7456   0.00924   0.00228  -0.2046  0.1690  0.0168  -0.9896   0.0000   0.0000   0.0000   0.5248
  -1.300   0.7572   0.00925   0.00228  -0.2047  0.1686  0.0169  -0.9999   0.0000   0.0000   0.0000   0.5205
  -1.200   0.7688   0.00926   0.00229  -0.2048  0.1681  0.0169  -1.0103   0.0000   0.0000   0.0000   0.5164
  -1.100   0.7804   0.00927   0.00230  -0.2049  0.1675  0.0170  -1.0207   0.0000   0.0000   0.0000   0.5124
  -1.000   0.7920   0.00929   0.00231  -0.2049  0.1667  0.0170  -1.0311   0.0000   0.0000   0.0000   0.5085
  -0.900   0.8035   0.00931   0.00232  -0.2050  0.1657  0.0170  -1.0415   0.0000   0.0000   0.0000   0.5047
  -0.800   0.8151   0.00932   0.00233  -0.2051  0.1654  0.0170  -1.0519   0.0000   0.0000   0.0000   0.5010
  -0.500   0.8473   0.00958   0.00247  -0.2049  0.1402  0.0187  -1.0827   0.0000   0.0000   0.0000   0.4907
  -0.400   0.8583   0.00964   0.00250  -0.2049  0.1365  0.0188  -1.0929   0.0000   0.0000   0.0000   0.4874
  -0.300   0.8695   0.00968   0.00252  -0.2049  0.1336  0.0189  -1.1032   0.0000   0.0000   0.0000   0.4842
  -0.200   0.8809   0.00971   0.00254  -0.2049  0.1315  0.0189  -1.1135   0.0000   0.0000   0.0000   0.4811
  -0.100   0.8923   0.00974   0.00256  -0.2050  0.1294  0.0189  -1.1239   0.0000   0.0000   0.0000   0.4780
   0.000   0.9036   0.00977   0.00259  -0.2050  0.1273  0.0188  -1.1342   0.0000   0.0000   0.0000   0.4750


