xflr5 v6.59

 Calculated polar for: WORTMANN FX 63-137 AIRFOIL

 1 1 Reynolds number fixed          Mach number fixed         

 xtrf =   1.000 (top)        1.000 (bottom)
 Mach =   0.000     Re =     3.000 e 6     Ncrit =   9.000

  alpha     CL        CD       CDp       Cm    Top Xtr Bot Xtr   Cpmin    Chinge    XCp    
 ------- -------- --------- --------- -------- ------- ------- -------- --------- ---------
 -12.700  -0.0937   0.10966   0.10699  -0.1083  0.6593  0.0072  -2.6014   0.0000   0.0000   0.0000  -1.0108
 -12.600  -0.0926   0.10796   0.10530  -0.1090  0.6584  0.0077  -2.6312   0.0000   0.0000   0.0000  -1.0341
 -12.500  -0.1025   0.10318   0.10054  -0.1107  0.6600  0.0085  -2.9577   0.0000   0.0000   0.0000  -0.9272
 -12.200  -0.0899   0.10084   0.09819  -0.1125  0.6534  0.0110  -2.7474   0.0000   0.0000   0.0000  -1.1087
 -12.100  -0.0870   0.09971   0.09705  -0.1130  0.6508  0.0111  -2.7308   0.0000   0.0000   0.0000  -1.1596
 -12.000  -0.0839   0.09867   0.09600  -0.1135  0.6456  0.0112  -2.7079   0.0000   0.0000   0.0000  -1.2158
 -11.900  -0.0807   0.09772   0.09502  -0.1139  0.6379  0.0112  -2.6798   0.0000   0.0000   0.0000  -1.2770
 -11.800  -0.0775   0.09680   0.09406  -0.1143  0.6293  0.0113  -2.6490   0.0000   0.0000   0.0000  -1.3455
 -11.700  -0.0739   0.09588   0.09313  -0.1147  0.6253  0.0114  -2.6159   0.0000   0.0000   0.0000  -1.4267
 -11.600  -0.0704   0.09497   0.09221  -0.1152  0.6211  0.0114  -2.5813   0.0000   0.0000   0.0000  -1.5169
 -11.500  -0.0667   0.09409   0.09131  -0.1156  0.6171  0.0115  -2.5455   0.0000   0.0000   0.0000  -1.6174
 -11.400  -0.0631   0.09323   0.09043  -0.1160  0.6130  0.0116  -2.5088   0.0000   0.0000   0.0000  -1.7296
 -11.300  -0.0595   0.09239   0.08957  -0.1164  0.6087  0.0117  -2.4711   0.0000   0.0000   0.0000  -1.8563
 -11.200  -0.0558   0.09156   0.08872  -0.1168  0.6039  0.0119  -2.4325   0.0000   0.0000   0.0000  -2.0015
 -11.100  -0.0520   0.09073   0.08789  -0.1172  0.5997  0.0120  -2.3930   0.0000   0.0000   0.0000  -2.1726
 -11.000  -0.0481   0.08991   0.08706  -0.1177  0.5971  0.0121  -2.3526   0.0000   0.0000   0.0000  -2.3766
 -10.900  -0.0441   0.08910   0.08625  -0.1181  0.5960  0.0123  -2.3112   0.0000   0.0000   0.0000  -2.6228
 -10.800  -0.0399   0.08830   0.08545  -0.1186  0.5946  0.0125  -2.2683   0.0000   0.0000   0.0000  -2.9285
 -10.700  -0.0357   0.08751   0.08465  -0.1190  0.5928  0.0128  -2.2243   0.0000   0.0000   0.0000  -3.3171
 -10.600  -0.0314   0.08673   0.08387  -0.1195  0.5902  0.0131  -2.1793   0.0000   0.0000   0.0000  -3.8183
 -10.500  -0.0269   0.08596   0.08310  -0.1199  0.5894  0.0135  -2.1332   0.0000   0.0000   0.0000  -4.5136
 -10.400  -0.0230   0.08530   0.08239  -0.1202  0.5746  0.0140  -2.0890   0.0000   0.0000   0.0000  -5.3190
 -10.300  -0.0188   0.08462   0.08166  -0.1205  0.5631  0.0146  -2.0452   0.0000   0.0000   0.0000  -6.5833
 -10.200  -0.0141   0.08385   0.08087  -0.1209  0.5582  0.0152  -2.0054   0.0000   0.0000   0.0000  -8.8717
 -10.100  -0.0095   0.08303   0.08003  -0.1213  0.5537  0.0157  -1.9724   0.0000   0.0000   0.0000  -13.2729
 -10.000  -0.0048   0.08226   0.07924  -0.1216  0.5491  0.0161  -1.9373   0.0000   0.0000   0.0000  -26.4955
  -9.400  -0.1846   0.00971   0.00463  -0.1956  0.6591  0.0065  -6.1283   0.0000   0.0000   0.0000  -0.8537
  -9.300  -0.1726   0.00961   0.00448  -0.1958  0.6538  0.0064  -6.0142   0.0000   0.0000   0.0000  -0.9307
  -9.000  -0.1400   0.00950   0.00414  -0.1960  0.6026  0.0063  -5.6885   0.0000   0.0000   0.0000  -1.2048
  -8.900  -0.1279   0.00940   0.00401  -0.1963  0.5957  0.0063  -5.5757   0.0000   0.0000   0.0000  -1.3430
  -8.800  -0.1158   0.00930   0.00389  -0.1965  0.5914  0.0063  -5.4632   0.0000   0.0000   0.0000  -1.5107
  -8.700  -0.1039   0.00921   0.00378  -0.1968  0.5861  0.0063  -5.3520   0.0000   0.0000   0.0000  -1.7149
  -8.600  -0.0933   0.00924   0.00370  -0.1967  0.5637  0.0063  -5.2486   0.0000   0.0000   0.0000  -1.9355
  -8.500  -0.0815   0.00918   0.00361  -0.1969  0.5577  0.0062  -5.1397   0.0000   0.0000   0.0000  -2.2533
  -8.400  -0.0697   0.00913   0.00352  -0.1971  0.5519  0.0062  -5.0320   0.0000   0.0000   0.0000  -2.6762
  -8.300  -0.0580   0.00909   0.00344  -0.1972  0.5461  0.0062  -4.9254   0.0000   0.0000   0.0000  -3.2663
  -8.200  -0.0463   0.00905   0.00336  -0.1974  0.5395  0.0062  -4.8194   0.0000   0.0000   0.0000  -4.1582
  -8.100  -0.0344   0.00899   0.00328  -0.1976  0.5337  0.0061  -4.7132   0.0000   0.0000   0.0000  -5.6934
  -8.000  -0.0222   0.00893   0.00320  -0.1978  0.5316  0.0061  -4.6071   0.0000   0.0000   0.0000  -8.9377
  -7.900  -0.0101   0.00887   0.00313  -0.1980  0.5299  0.0061  -4.5019   0.0000   0.0000   0.0000  -19.9472
  -7.800   0.0019   0.00881   0.00305  -0.1982  0.5275  0.0061  -4.3977   0.0000   0.0000   0.0000  105.7076
  -7.700   0.0140   0.00876   0.00298  -0.1984  0.5251  0.0060  -4.2945   0.0000   0.0000   0.0000  14.8761
  -7.600   0.0251   0.00878   0.00294  -0.1984  0.5105  0.0060  -4.2113   0.0000   0.0000   0.0000   8.4063
  -7.500   0.0363   0.00880   0.00289  -0.1985  0.4964  0.0060  -4.1380   0.0000   0.0000   0.0000   5.8905
  -7.400   0.0480   0.00878   0.00284  -0.1986  0.4902  0.0060  -4.0633   0.0000   0.0000   0.0000   4.5151
  -7.300   0.0596   0.00876   0.00279  -0.1987  0.4841  0.0059  -3.9893   0.0000   0.0000   0.0000   3.6837
  -7.200   0.0712   0.00875   0.00275  -0.1988  0.4777  0.0059  -3.9158   0.0000   0.0000   0.0000   3.1242
  -7.100   0.0829   0.00873   0.00270  -0.1989  0.4707  0.0059  -3.8422   0.0000   0.0000   0.0000   2.7173
  -7.000   0.0949   0.00870   0.00265  -0.1991  0.4668  0.0059  -3.7681   0.0000   0.0000   0.0000   2.4068
  -6.900   0.1070   0.00865   0.00259  -0.1993  0.4662  0.0059  -3.6934   0.0000   0.0000   0.0000   2.1639
  -6.800   0.1190   0.00862   0.00254  -0.1995  0.4647  0.0059  -3.6196   0.0000   0.0000   0.0000   1.9712
  -6.700   0.1310   0.00858   0.00250  -0.1996  0.4625  0.0059  -3.5463   0.0000   0.0000   0.0000   1.8144
  -6.600   0.1430   0.00855   0.00246  -0.1998  0.4609  0.0060  -3.4733   0.0000   0.0000   0.0000   1.6837
  -6.500   0.1541   0.00859   0.00245  -0.1998  0.4467  0.0060  -3.4036   0.0000   0.0000   0.0000   1.5801
  -6.400   0.1651   0.00864   0.00243  -0.1998  0.4322  0.0060  -3.3345   0.0000   0.0000   0.0000   1.4908
  -6.300   0.1768   0.00863   0.00240  -0.1999  0.4268  0.0059  -3.2635   0.0000   0.0000   0.0000   1.4090
  -6.200   0.1884   0.00863   0.00238  -0.2000  0.4216  0.0059  -3.1932   0.0000   0.0000   0.0000   1.3377
  -6.100   0.1999   0.00864   0.00235  -0.2001  0.4163  0.0059  -3.1236   0.0000   0.0000   0.0000   1.2748
  -6.000   0.2116   0.00864   0.00233  -0.2002  0.4106  0.0059  -3.0538   0.0000   0.0000   0.0000   1.2185
  -5.900   0.2233   0.00863   0.00231  -0.2003  0.4046  0.0059  -2.9834   0.0000   0.0000   0.0000   1.1677
  -5.800   0.2353   0.00861   0.00228  -0.2005  0.4019  0.0058  -2.9116   0.0000   0.0000   0.0000   1.1214
  -5.700   0.2472   0.00859   0.00226  -0.2006  0.4007  0.0058  -2.8384   0.0000   0.0000   0.0000   1.0797
  -5.600   0.2590   0.00857   0.00225  -0.2007  0.3993  0.0058  -2.7629   0.0000   0.0000   0.0000   1.0419
  -5.500   0.2707   0.00857   0.00225  -0.2008  0.3970  0.0058  -2.6789   0.0000   0.0000   0.0000   1.0078
  -5.300   0.2920   0.00874   0.00242  -0.2006  0.3779  0.0058  -2.4748   0.0000   0.0000   0.0000   0.9512
  -5.200   0.3033   0.00877   0.00241  -0.2007  0.3677  0.0057  -2.4117   0.0000   0.0000   0.0000   0.9250
  -5.100   0.3149   0.00877   0.00240  -0.2008  0.3632  0.0057  -2.3495   0.0000   0.0000   0.0000   0.9001
  -5.000   0.3265   0.00878   0.00238  -0.2009  0.3589  0.0057  -2.2892   0.0000   0.0000   0.0000   0.8770
  -4.900   0.3381   0.00879   0.00236  -0.2010  0.3544  0.0057  -2.2306   0.0000   0.0000   0.0000   0.8555
  -4.800   0.3498   0.00879   0.00234  -0.2011  0.3498  0.0057  -2.1733   0.0000   0.0000   0.0000   0.8354
  -4.700   0.3616   0.00879   0.00232  -0.2012  0.3446  0.0057  -2.1171   0.0000   0.0000   0.0000   0.8164
  -4.600   0.3735   0.00877   0.00230  -0.2013  0.3402  0.0056  -2.0620   0.0000   0.0000   0.0000   0.7985
  -4.500   0.3855   0.00875   0.00227  -0.2015  0.3387  0.0056  -2.0080   0.0000   0.0000   0.0000   0.7817
  -4.400   0.3975   0.00872   0.00223  -0.2017  0.3377  0.0056  -1.9563   0.0000   0.0000   0.0000   0.7658
  -4.300   0.4095   0.00870   0.00220  -0.2018  0.3366  0.0056  -1.9049   0.0000   0.0000   0.0000   0.7508
  -4.200   0.4215   0.00868   0.00217  -0.2020  0.3353  0.0056  -1.8551   0.0000   0.0000   0.0000   0.7368
  -4.100   0.4335   0.00866   0.00214  -0.2022  0.3336  0.0057  -1.8071   0.0000   0.0000   0.0000   0.7235
  -4.000   0.4455   0.00864   0.00211  -0.2023  0.3330  0.0057  -1.7609   0.0000   0.0000   0.0000   0.7108
  -3.900   0.4557   0.00877   0.00214  -0.2022  0.3090  0.0057  -1.7210   0.0000   0.0000   0.0000   0.7000
  -3.800   0.4675   0.00877   0.00212  -0.2023  0.3045  0.0059  -1.6837   0.0000   0.0000   0.0000   0.6887
  -3.700   0.4810   0.00866   0.00200  -0.2028  0.3002  0.0141  -1.7809   0.0000   0.0000   0.0000   0.6772
  -3.600   0.4923   0.00869   0.00202  -0.2028  0.2962  0.0146  -1.7107   0.0000   0.0000   0.0000   0.6673
  -3.500   0.5036   0.00873   0.00204  -0.2028  0.2920  0.0150  -1.6377   0.0000   0.0000   0.0000   0.6578
  -3.400   0.5148   0.00876   0.00207  -0.2029  0.2877  0.0154  -1.5612   0.0000   0.0000   0.0000   0.6488
  -3.300   0.5261   0.00880   0.00210  -0.2029  0.2829  0.0157  -1.4827   0.0000   0.0000   0.0000   0.6401
  -3.200   0.5375   0.00882   0.00213  -0.2029  0.2792  0.0160  -1.4052   0.0000   0.0000   0.0000   0.6317
  -3.100   0.5490   0.00884   0.00216  -0.2030  0.2782  0.0163  -1.3308   0.0000   0.0000   0.0000   0.6237
  -3.000   0.5605   0.00885   0.00218  -0.2031  0.2774  0.0165  -1.2604   0.0000   0.0000   0.0000   0.6160
  -2.900   0.5721   0.00885   0.00220  -0.2032  0.2764  0.0166  -1.1935   0.0000   0.0000   0.0000   0.6085
  -2.800   0.5837   0.00886   0.00223  -0.2033  0.2752  0.0168  -1.1294   0.0000   0.0000   0.0000   0.6014
  -2.700   0.5952   0.00888   0.00226  -0.2034  0.2738  0.0170  -1.0644   0.0000   0.0000   0.0000   0.5946
  -2.300   0.6400   0.00911   0.00218  -0.2034  0.2312  0.0165  -0.9431   0.0000   0.0000   0.0000   0.5699
  -2.200   0.6512   0.00915   0.00220  -0.2034  0.2215  0.0166  -0.9123   0.0000   0.0000   0.0000   0.5642
  -2.100   0.6628   0.00917   0.00221  -0.2035  0.2196  0.0167  -0.9212   0.0000   0.0000   0.0000   0.5587
  -2.000   0.6743   0.00919   0.00222  -0.2036  0.2173  0.0168  -0.9300   0.0000   0.0000   0.0000   0.5534
  -1.900   0.6846   0.00931   0.00229  -0.2035  0.2007  0.0169  -0.9390   0.0000   0.0000   0.0000   0.5485
  -1.800   0.6957   0.00937   0.00232  -0.2035  0.1938  0.0170  -0.9478   0.0000   0.0000   0.0000   0.5435
  -1.700   0.7071   0.00940   0.00233  -0.2035  0.1914  0.0170  -0.9566   0.0000   0.0000   0.0000   0.5387
  -0.900   0.7989   0.00959   0.00240  -0.2041  0.1715  0.0187  -1.0375   0.0000   0.0000   0.0000   0.5049
  -0.800   0.8106   0.00960   0.00241  -0.2041  0.1702  0.0188  -1.0480   0.0000   0.0000   0.0000   0.5012
  -0.700   0.8222   0.00961   0.00241  -0.2042  0.1699  0.0190  -1.0584   0.0000   0.0000   0.0000   0.4976
  -0.600   0.8337   0.00962   0.00242  -0.2043  0.1694  0.0191  -1.0689   0.0000   0.0000   0.0000   0.4941
  -0.500   0.8453   0.00964   0.00243  -0.2044  0.1687  0.0193  -1.0793   0.0000   0.0000   0.0000   0.4907
  -0.400   0.8567   0.00967   0.00245  -0.2044  0.1674  0.0193  -1.0898   0.0000   0.0000   0.0000   0.4874
  -0.300   0.8680   0.00970   0.00247  -0.2045  0.1653  0.0193  -1.1002   0.0000   0.0000   0.0000   0.4841
  -0.200   0.8777   0.00988   0.00257  -0.2042  0.1461  0.0193  -1.1105   0.0000   0.0000   0.0000   0.4811
  -0.100   0.8889   0.00992   0.00260  -0.2042  0.1441  0.0191  -1.1209   0.0000   0.0000   0.0000   0.4780
   0.000   0.9000   0.00996   0.00263  -0.2042  0.1421  0.0189  -1.1312   0.0000   0.0000   0.0000   0.4750


