xflr5 v6.59

 Calculated polar for: WORTMANN FX 63-137 AIRFOIL

 1 1 Reynolds number fixed          Mach number fixed         

 xtrf =   1.000 (top)        1.000 (bottom)
 Mach =   0.000     Re =     4.900 e 6     Ncrit =   9.000

  alpha     CL        CD       CDp       Cm    Top Xtr Bot Xtr   Cpmin    Chinge    XCp    
 ------- -------- --------- --------- -------- ------- ------- -------- --------- ---------
 -16.000  -0.6774   0.05382   0.05176  -0.1391  0.9228  0.0042  -13.6170   0.0000   0.0000   0.0000   0.0142
 -15.900  -0.7150   0.04894   0.04689  -0.1398  0.9457  0.0042  -14.1020   0.0000   0.0000   0.0000   0.0255
 -15.800  -0.7145   0.04378   0.04143  -0.1491  0.8975  0.0042  -14.2338   0.0000   0.0000   0.0000   0.0125
 -15.700  -0.7223   0.04095   0.03847  -0.1521  0.8787  0.0042  -14.3347   0.0000   0.0000   0.0000   0.0112
 -15.600  -0.7251   0.03911   0.03654  -0.1539  0.8607  0.0042  -14.3437   0.0000   0.0000   0.0000   0.0099
 -15.500  -0.7309   0.03687   0.03421  -0.1561  0.8478  0.0042  -14.3955   0.0000   0.0000   0.0000   0.0091
 -15.400  -0.7329   0.03531   0.03257  -0.1575  0.8337  0.0042  -14.3821   0.0000   0.0000   0.0000   0.0082
 -15.300  -0.7354   0.03360   0.03080  -0.1591  0.8250  0.0042  -14.3777   0.0000   0.0000   0.0000   0.0071
 -15.200  -0.7358   0.03231   0.02943  -0.1602  0.8122  0.0042  -14.3374   0.0000   0.0000   0.0000   0.0060
 -15.100  -0.7372   0.03087   0.02793  -0.1616  0.8016  0.0042  -14.3099   0.0000   0.0000   0.0000   0.0050
 -15.000  -0.7362   0.02975   0.02677  -0.1625  0.7953  0.0042  -14.2466   0.0000   0.0000   0.0000   0.0037
 -14.900  -0.7362   0.02849   0.02546  -0.1637  0.7889  0.0042  -14.1985   0.0000   0.0000   0.0000   0.0025
 -14.800  -0.7343   0.02757   0.02450  -0.1644  0.7811  0.0043  -14.1188   0.0000   0.0000   0.0000   0.0013
 -14.700  -0.7333   0.02647   0.02336  -0.1653  0.7769  0.0043  -14.0536   0.0000   0.0000   0.0000  -0.0000
 -14.600  -0.7312   0.02560   0.02246  -0.1659  0.7745  0.0043  -13.9697   0.0000   0.0000   0.0000  -0.0012
 -14.500  -0.7302   0.02473   0.02157  -0.1664  0.7704  0.0043  -13.8960   0.0000   0.0000   0.0000  -0.0019
 -14.400  -0.7271   0.02391   0.02070  -0.1672  0.7623  0.0043  -13.8032   0.0000   0.0000   0.0000  -0.0037
 -14.300  -0.7222   0.02317   0.01991  -0.1682  0.7506  0.0043  -13.6899   0.0000   0.0000   0.0000  -0.0064
 -14.200  -0.7160   0.02236   0.01906  -0.1694  0.7462  0.0043  -13.5673   0.0000   0.0000   0.0000  -0.0101
 -14.100  -0.7089   0.02164   0.01831  -0.1707  0.7421  0.0043  -13.4344   0.0000   0.0000   0.0000  -0.0140
 -14.000  -0.7021   0.02075   0.01735  -0.1723  0.7356  0.0043  -13.3153   0.0000   0.0000   0.0000  -0.0185
 -13.900  -0.6933   0.02013   0.01669  -0.1736  0.7313  0.0043  -13.1637   0.0000   0.0000   0.0000  -0.0235
 -13.800  -0.6837   0.01955   0.01609  -0.1750  0.7276  0.0043  -13.0037   0.0000   0.0000   0.0000  -0.0289
 -13.700  -0.6734   0.01899   0.01551  -0.1764  0.7244  0.0043  -12.8370   0.0000   0.0000   0.0000  -0.0349
 -13.600  -0.6625   0.01848   0.01499  -0.1778  0.7218  0.0044  -12.6639   0.0000   0.0000   0.0000  -0.0414
 -13.500  -0.6510   0.01801   0.01450  -0.1792  0.7207  0.0044  -12.4853   0.0000   0.0000   0.0000  -0.0483
 -13.400  -0.6393   0.01760   0.01408  -0.1805  0.7202  0.0044  -12.3028   0.0000   0.0000   0.0000  -0.0554
 -13.300  -0.6276   0.01727   0.01375  -0.1815  0.7196  0.0044  -12.1186   0.0000   0.0000   0.0000  -0.0624
 -13.200  -0.6164   0.01704   0.01352  -0.1822  0.7185  0.0044  -11.9343   0.0000   0.0000   0.0000  -0.0688
 -13.100  -0.6054   0.01689   0.01338  -0.1826  0.7164  0.0044  -11.7484   0.0000   0.0000   0.0000  -0.0748
  -7.400   0.0470   0.00893   0.00315  -0.1992  0.3372  0.0098  -3.9417   0.0000   0.0000   0.0000   4.6120
  -6.800   0.1202   0.00860   0.00245  -0.2005  0.3066  0.0061  -3.6352   0.0000   0.0000   0.0000   1.9635
  -6.700   0.1320   0.00859   0.00242  -0.2006  0.3030  0.0061  -3.5623   0.0000   0.0000   0.0000   1.8107
  -6.600   0.1437   0.00859   0.00240  -0.2007  0.2994  0.0060  -3.4899   0.0000   0.0000   0.0000   1.6834
  -6.500   0.1554   0.00858   0.00238  -0.2008  0.2957  0.0060  -3.4181   0.0000   0.0000   0.0000   1.5756
  -6.400   0.1671   0.00858   0.00235  -0.2009  0.2918  0.0059  -3.3465   0.0000   0.0000   0.0000   1.4827
  -6.300   0.1789   0.00857   0.00233  -0.2010  0.2878  0.0059  -3.2748   0.0000   0.0000   0.0000   1.4016
  -6.200   0.1908   0.00856   0.00231  -0.2012  0.2833  0.0059  -3.2027   0.0000   0.0000   0.0000   1.3304
  -6.100   0.2026   0.00855   0.00230  -0.2013  0.2797  0.0058  -3.1301   0.0000   0.0000   0.0000   1.2673
  -6.000   0.2145   0.00853   0.00228  -0.2014  0.2784  0.0058  -3.0562   0.0000   0.0000   0.0000   1.2111
  -5.900   0.2264   0.00852   0.00227  -0.2016  0.2778  0.0058  -2.9805   0.0000   0.0000   0.0000   1.1610
  -5.800   0.2382   0.00852   0.00226  -0.2017  0.2771  0.0058  -2.9014   0.0000   0.0000   0.0000   1.1159
  -5.700   0.2482   0.00865   0.00249  -0.2014  0.2763  0.0058  -2.7100   0.0000   0.0000   0.0000   1.0795
  -5.600   0.2599   0.00865   0.00250  -0.2015  0.2752  0.0058  -2.6368   0.0000   0.0000   0.0000   1.0421
  -5.500   0.2718   0.00863   0.00248  -0.2017  0.2750  0.0057  -2.5692   0.0000   0.0000   0.0000   1.0076
  -5.300   0.2942   0.00872   0.00249  -0.2017  0.2495  0.0056  -2.4472   0.0000   0.0000   0.0000   0.9496
  -5.200   0.3060   0.00872   0.00247  -0.2018  0.2465  0.0055  -2.3870   0.0000   0.0000   0.0000   0.9227
  -5.100   0.3178   0.00871   0.00245  -0.2019  0.2436  0.0055  -2.3284   0.0000   0.0000   0.0000   0.8979
  -5.000   0.3295   0.00871   0.00242  -0.2020  0.2407  0.0054  -2.2713   0.0000   0.0000   0.0000   0.8749
  -4.900   0.3413   0.00870   0.00240  -0.2022  0.2378  0.0054  -2.2155   0.0000   0.0000   0.0000   0.8534
  -4.800   0.3532   0.00870   0.00237  -0.2023  0.2348  0.0053  -2.1609   0.0000   0.0000   0.0000   0.8333
  -4.700   0.3651   0.00868   0.00234  -0.2024  0.2318  0.0053  -2.1074   0.0000   0.0000   0.0000   0.8144
  -4.600   0.3770   0.00867   0.00231  -0.2026  0.2287  0.0052  -2.0552   0.0000   0.0000   0.0000   0.7967
  -4.500   0.3890   0.00865   0.00228  -0.2027  0.2252  0.0052  -2.0044   0.0000   0.0000   0.0000   0.7801
  -4.400   0.4010   0.00863   0.00224  -0.2029  0.2224  0.0051  -1.9556   0.0000   0.0000   0.0000   0.7644
  -4.300   0.4131   0.00861   0.00221  -0.2031  0.2218  0.0051  -1.9074   0.0000   0.0000   0.0000   0.7495
  -4.200   0.4251   0.00859   0.00218  -0.2032  0.2214  0.0051  -1.8610   0.0000   0.0000   0.0000   0.7356
  -4.100   0.4372   0.00856   0.00215  -0.2034  0.2209  0.0050  -1.8170   0.0000   0.0000   0.0000   0.7223
  -4.000   0.4498   0.00851   0.00206  -0.2037  0.2204  0.0050  -1.8201   0.0000   0.0000   0.0000   0.7095
  -3.900   0.4619   0.00849   0.00203  -0.2038  0.2198  0.0050  -1.7843   0.0000   0.0000   0.0000   0.6977
  -3.800   0.4738   0.00848   0.00202  -0.2040  0.2191  0.0050  -1.7419   0.0000   0.0000   0.0000   0.6865
  -3.700   0.4857   0.00847   0.00201  -0.2041  0.2183  0.0050  -1.6983   0.0000   0.0000   0.0000   0.6759
  -3.600   0.4976   0.00846   0.00200  -0.2043  0.2181  0.0050  -1.6553   0.0000   0.0000   0.0000   0.6657
  -3.500   0.5085   0.00854   0.00203  -0.2042  0.2030  0.0051  -1.6191   0.0000   0.0000   0.0000   0.6566
  -3.400   0.5207   0.00852   0.00203  -0.2044  0.1946  0.0139  -1.6258   0.0000   0.0000   0.0000   0.6473
  -3.300   0.5323   0.00853   0.00203  -0.2045  0.1927  0.0143  -1.5651   0.0000   0.0000   0.0000   0.6386
  -3.200   0.5439   0.00854   0.00203  -0.2046  0.1907  0.0146  -1.5048   0.0000   0.0000   0.0000   0.6303
  -3.100   0.5555   0.00856   0.00204  -0.2047  0.1888  0.0149  -1.4447   0.0000   0.0000   0.0000   0.6224
  -3.000   0.5670   0.00858   0.00205  -0.2048  0.1869  0.0151  -1.3847   0.0000   0.0000   0.0000   0.6147
  -2.900   0.5786   0.00860   0.00205  -0.2048  0.1849  0.0153  -1.3249   0.0000   0.0000   0.0000   0.6074
  -2.800   0.5901   0.00862   0.00206  -0.2049  0.1830  0.0154  -1.2654   0.0000   0.0000   0.0000   0.6004
  -2.700   0.6017   0.00863   0.00207  -0.2050  0.1810  0.0156  -1.2071   0.0000   0.0000   0.0000   0.5936
  -2.600   0.6133   0.00865   0.00207  -0.2051  0.1790  0.0157  -1.1514   0.0000   0.0000   0.0000   0.5871
  -2.500   0.6250   0.00866   0.00207  -0.2052  0.1760  0.0157  -1.1007   0.0000   0.0000   0.0000   0.5807
  -2.400   0.6367   0.00866   0.00207  -0.2053  0.1710  0.0156  -1.0607   0.0000   0.0000   0.0000   0.5746
  -2.300   0.6482   0.00869   0.00207  -0.2053  0.1663  0.0152  -1.0234   0.0000   0.0000   0.0000   0.5688
  -2.200   0.6588   0.00879   0.00213  -0.2052  0.1523  0.0154  -0.9733   0.0000   0.0000   0.0000   0.5634
  -2.100   0.6700   0.00884   0.00215  -0.2053  0.1455  0.0155  -0.9279   0.0000   0.0000   0.0000   0.5580
  -2.000   0.6815   0.00886   0.00216  -0.2053  0.1439  0.0157  -0.9366   0.0000   0.0000   0.0000   0.5527
  -1.900   0.6930   0.00889   0.00217  -0.2054  0.1423  0.0158  -0.9453   0.0000   0.0000   0.0000   0.5476
  -1.800   0.7045   0.00891   0.00219  -0.2054  0.1408  0.0159  -0.9539   0.0000   0.0000   0.0000   0.5427
  -1.700   0.7159   0.00894   0.00220  -0.2055  0.1393  0.0160  -0.9637   0.0000   0.0000   0.0000   0.5379
  -1.600   0.7274   0.00897   0.00221  -0.2055  0.1378  0.0161  -0.9740   0.0000   0.0000   0.0000   0.5333
  -1.500   0.7389   0.00899   0.00223  -0.2056  0.1364  0.0162  -0.9842   0.0000   0.0000   0.0000   0.5288
  -1.400   0.7504   0.00901   0.00224  -0.2057  0.1349  0.0162  -0.9945   0.0000   0.0000   0.0000   0.5245
  -1.300   0.7619   0.00903   0.00225  -0.2057  0.1334  0.0163  -1.0048   0.0000   0.0000   0.0000   0.5202
  -1.200   0.7734   0.00905   0.00226  -0.2058  0.1318  0.0164  -1.0151   0.0000   0.0000   0.0000   0.5161
  -1.100   0.7849   0.00907   0.00228  -0.2059  0.1302  0.0164  -1.0254   0.0000   0.0000   0.0000   0.5121
  -1.000   0.7964   0.00909   0.00229  -0.2059  0.1285  0.0165  -1.0358   0.0000   0.0000   0.0000   0.5083
  -0.900   0.8080   0.00911   0.00231  -0.2060  0.1269  0.0165  -1.0461   0.0000   0.0000   0.0000   0.5045
  -0.800   0.8195   0.00913   0.00233  -0.2061  0.1251  0.0166  -1.0565   0.0000   0.0000   0.0000   0.5008
  -0.700   0.8309   0.00915   0.00234  -0.2061  0.1239  0.0166  -1.0668   0.0000   0.0000   0.0000   0.4973
  -0.600   0.8424   0.00917   0.00236  -0.2062  0.1234  0.0166  -1.0772   0.0000   0.0000   0.0000   0.4938
  -0.500   0.8539   0.00919   0.00238  -0.2063  0.1230  0.0166  -1.0876   0.0000   0.0000   0.0000   0.4904
  -0.400   0.8654   0.00921   0.00240  -0.2063  0.1227  0.0167  -1.0980   0.0000   0.0000   0.0000   0.4872
  -0.300   0.8768   0.00923   0.00242  -0.2064  0.1224  0.0168  -1.1084   0.0000   0.0000   0.0000   0.4840
  -0.200   0.8883   0.00925   0.00243  -0.2064  0.1220  0.0169  -1.1189   0.0000   0.0000   0.0000   0.4809
  -0.100   0.8997   0.00927   0.00245  -0.2065  0.1215  0.0170  -1.1293   0.0000   0.0000   0.0000   0.4778


