xflr5 v6.59

 Calculated polar for: WORTMANN FX 63-137 AIRFOIL

 1 1 Reynolds number fixed          Mach number fixed         

 xtrf =   1.000 (top)        1.000 (bottom)
 Mach =   0.000     Re =     3.500 e 6     Ncrit =   9.000

  alpha     CL        CD       CDp       Cm    Top Xtr Bot Xtr   Cpmin    Chinge    XCp    
 ------- -------- --------- --------- -------- ------- ------- -------- --------- ---------
 -18.000  -0.2372   0.18821   0.18689  -0.0707  0.9477  0.0045  -1.4027   0.0000   0.0000   0.0000  -0.1001
 -17.900  -0.2180   0.18483   0.18336  -0.0770  0.9231  0.0045  -1.3993   0.0000   0.0000   0.0000  -0.1605
 -17.800  -0.2104   0.18312   0.18136  -0.0792  0.8684  0.0045  -1.4003   0.0000   0.0000   0.0000  -0.1852
 -17.700  -0.2069   0.18187   0.18001  -0.0798  0.8478  0.0045  -1.4034   0.0000   0.0000   0.0000  -0.1953
 -17.600  -0.2036   0.18060   0.17870  -0.0804  0.8371  0.0045  -1.4067   0.0000   0.0000   0.0000  -0.2053
 -17.500  -0.2003   0.17934   0.17739  -0.0810  0.8280  0.0045  -1.4103   0.0000   0.0000   0.0000  -0.2154
 -17.400  -0.1971   0.17805   0.17608  -0.0816  0.8228  0.0045  -1.4140   0.0000   0.0000   0.0000  -0.2259
 -17.300  -0.1938   0.17678   0.17478  -0.0822  0.8136  0.0045  -1.4178   0.0000   0.0000   0.0000  -0.2366
 -17.200  -0.1907   0.17552   0.17347  -0.0828  0.8038  0.0045  -1.4218   0.0000   0.0000   0.0000  -0.2474
 -17.100  -0.1875   0.17424   0.17216  -0.0834  0.7987  0.0045  -1.4260   0.0000   0.0000   0.0000  -0.2588
 -17.000  -0.1843   0.17295   0.17086  -0.0840  0.7939  0.0045  -1.4303   0.0000   0.0000   0.0000  -0.2705
 -16.900  -0.1811   0.17167   0.16954  -0.0846  0.7880  0.0045  -1.4348   0.0000   0.0000   0.0000  -0.2824
 -16.800  -0.1780   0.17039   0.16823  -0.0851  0.7823  0.0045  -1.4395   0.0000   0.0000   0.0000  -0.2947
 -16.700  -0.1748   0.16910   0.16692  -0.0857  0.7777  0.0045  -1.4445   0.0000   0.0000   0.0000  -0.3076
 -16.600  -0.1716   0.16779   0.16561  -0.0863  0.7758  0.0045  -1.4496   0.0000   0.0000   0.0000  -0.3211
 -16.500  -0.1684   0.16648   0.16429  -0.0869  0.7733  0.0045  -1.4550   0.0000   0.0000   0.0000  -0.3349
 -16.400  -0.1653   0.16518   0.16298  -0.0875  0.7691  0.0045  -1.4606   0.0000   0.0000   0.0000  -0.3490
 -16.300  -0.1623   0.16390   0.16167  -0.0880  0.7619  0.0045  -1.4665   0.0000   0.0000   0.0000  -0.3632
 -16.200  -0.1594   0.16264   0.16036  -0.0885  0.7513  0.0045  -1.4726   0.0000   0.0000   0.0000  -0.3772
 -16.100  -0.1564   0.16135   0.15905  -0.0891  0.7457  0.0045  -1.4791   0.0000   0.0000   0.0000  -0.3923
 -16.000  -0.1535   0.16006   0.15773  -0.0896  0.7407  0.0045  -1.4859   0.0000   0.0000   0.0000  -0.4078
 -15.900  -0.1506   0.15877   0.15642  -0.0902  0.7351  0.0045  -1.4930   0.0000   0.0000   0.0000  -0.4236
 -15.800  -0.1477   0.15750   0.15511  -0.0907  0.7282  0.0045  -1.5006   0.0000   0.0000   0.0000  -0.4396
 -15.700  -0.1449   0.15621   0.15380  -0.0912  0.7216  0.0045  -1.5086   0.0000   0.0000   0.0000  -0.4565
 -15.600  -0.1420   0.15489   0.15248  -0.0917  0.7194  0.0045  -1.5172   0.0000   0.0000   0.0000  -0.4745
 -15.500  -0.1391   0.15358   0.15116  -0.0923  0.7168  0.0045  -1.5264   0.0000   0.0000   0.0000  -0.4928
 -15.000  -0.1586   0.13633   0.13401  -0.0963  0.7344  0.0037  -3.0796   0.0000   0.0000   0.0000  -0.4299
 -14.900  -0.1552   0.13527   0.13292  -0.0968  0.7293  0.0038  -3.0491   0.0000   0.0000   0.0000  -0.4475
 -14.800  -0.1518   0.13420   0.13183  -0.0973  0.7227  0.0038  -3.0188   0.0000   0.0000   0.0000  -0.4659
 -14.700  -0.1484   0.13311   0.13073  -0.0979  0.7198  0.0039  -2.9884   0.0000   0.0000   0.0000  -0.4858
 -14.600  -0.1449   0.13202   0.12964  -0.0984  0.7171  0.0040  -2.9579   0.0000   0.0000   0.0000  -0.5065
 -10.500  -0.0409   0.08296   0.07997  -0.1211  0.5269  0.0126  -2.4097   0.0000   0.0000   0.0000  -2.9126
 -10.400  -0.0368   0.08216   0.07916  -0.1215  0.5239  0.0128  -2.3667   0.0000   0.0000   0.0000  -3.2732
 -10.300  -0.0336   0.08150   0.07843  -0.1217  0.5043  0.0130  -2.3260   0.0000   0.0000   0.0000  -3.6078
 -10.200  -0.0296   0.08076   0.07767  -0.1221  0.4968  0.0134  -2.2816   0.0000   0.0000   0.0000  -4.1457
 -10.100  -0.0253   0.08004   0.07692  -0.1225  0.4921  0.0138  -2.2354   0.0000   0.0000   0.0000  -4.8990
 -10.000  -0.0209   0.07934   0.07621  -0.1228  0.4874  0.0142  -2.1882   0.0000   0.0000   0.0000  -6.0016
  -9.900  -0.0162   0.07868   0.07552  -0.1231  0.4826  0.0148  -2.1404   0.0000   0.0000   0.0000  -7.8029
  -9.800  -0.0113   0.07803   0.07486  -0.1235  0.4776  0.0153  -2.0926   0.0000   0.0000   0.0000  -11.3658
  -9.700  -0.0061   0.07738   0.07419  -0.1238  0.4726  0.0158  -2.0466   0.0000   0.0000   0.0000  -21.1761
  -9.600  -0.0010   0.07668   0.07349  -0.1241  0.4680  0.0161  -2.0040   0.0000   0.0000   0.0000  -128.3736
  -9.500   0.0044   0.07600   0.07280  -0.1245  0.4675  0.0164  -1.9597   0.0000   0.0000   0.0000  30.2758
  -8.900  -0.1276   0.00916   0.00377  -0.1970  0.5308  0.0097  -5.5732   0.0000   0.0000   0.0000  -1.3523
  -8.600  -0.0924   0.00912   0.00357  -0.1972  0.5226  0.0064  -5.2421   0.0000   0.0000   0.0000  -1.9617
  -8.500  -0.0819   0.00916   0.00351  -0.1972  0.4990  0.0063  -5.1395   0.0000   0.0000   0.0000  -2.2451
  -8.400  -0.0701   0.00911   0.00342  -0.1973  0.4926  0.0063  -5.0316   0.0000   0.0000   0.0000  -2.6663
  -8.300  -0.0583   0.00907   0.00334  -0.1975  0.4864  0.0063  -4.9249   0.0000   0.0000   0.0000  -3.2530
  -8.200  -0.0467   0.00904   0.00327  -0.1976  0.4801  0.0062  -4.8193   0.0000   0.0000   0.0000  -4.1288
  -8.100  -0.0349   0.00900   0.00320  -0.1978  0.4735  0.0062  -4.7138   0.0000   0.0000   0.0000  -5.6101
  -8.000  -0.0229   0.00896   0.00313  -0.1980  0.4675  0.0062  -4.6083   0.0000   0.0000   0.0000  -8.6736
  -7.900  -0.0108   0.00890   0.00305  -0.1982  0.4659  0.0062  -4.5030   0.0000   0.0000   0.0000  -18.6830
  -7.800   0.0013   0.00885   0.00299  -0.1984  0.4641  0.0061  -4.3987   0.0000   0.0000   0.0000  160.5941
  -7.700   0.0133   0.00880   0.00292  -0.1986  0.4620  0.0061  -4.2961   0.0000   0.0000   0.0000  15.6151
  -7.600   0.0255   0.00874   0.00286  -0.1988  0.4613  0.0061  -4.2189   0.0000   0.0000   0.0000   8.2953
  -7.500   0.0359   0.00882   0.00285  -0.1987  0.4364  0.0060  -4.1483   0.0000   0.0000   0.0000   5.9599
  -7.400   0.0476   0.00880   0.00279  -0.1988  0.4296  0.0060  -4.0734   0.0000   0.0000   0.0000   4.5531
  -7.300   0.0593   0.00879   0.00274  -0.1989  0.4243  0.0060  -3.9989   0.0000   0.0000   0.0000   3.7035
  -7.200   0.0710   0.00878   0.00270  -0.1991  0.4188  0.0059  -3.9251   0.0000   0.0000   0.0000   3.1368
  -7.100   0.0827   0.00876   0.00266  -0.1992  0.4132  0.0059  -3.8516   0.0000   0.0000   0.0000   2.7289
  -7.000   0.0945   0.00874   0.00262  -0.1993  0.4071  0.0059  -3.7781   0.0000   0.0000   0.0000   2.4194
  -6.900   0.1065   0.00871   0.00256  -0.1995  0.4053  0.0059  -3.7039   0.0000   0.0000   0.0000   2.1748
  -6.800   0.1185   0.00867   0.00252  -0.1997  0.4022  0.0059  -3.6305   0.0000   0.0000   0.0000   1.9805
  -6.700   0.1305   0.00864   0.00248  -0.1998  0.4011  0.0059  -3.5572   0.0000   0.0000   0.0000   1.8217
  -6.600   0.1425   0.00861   0.00244  -0.2000  0.3999  0.0059  -3.4842   0.0000   0.0000   0.0000   1.6899
  -6.500   0.1545   0.00858   0.00241  -0.2002  0.3982  0.0059  -3.4115   0.0000   0.0000   0.0000   1.5789
  -6.400   0.1665   0.00855   0.00238  -0.2003  0.3970  0.0059  -3.3390   0.0000   0.0000   0.0000   1.4837
  -6.200   0.1887   0.00864   0.00236  -0.2003  0.3698  0.0059  -3.2007   0.0000   0.0000   0.0000   1.3376
  -6.100   0.2004   0.00864   0.00234  -0.2004  0.3654  0.0058  -3.1299   0.0000   0.0000   0.0000   1.2742
  -6.000   0.2120   0.00864   0.00232  -0.2005  0.3610  0.0058  -3.0597   0.0000   0.0000   0.0000   1.2180
  -5.900   0.2236   0.00865   0.00231  -0.2006  0.3567  0.0058  -2.9900   0.0000   0.0000   0.0000   1.1678
  -5.800   0.2352   0.00865   0.00229  -0.2007  0.3522  0.0058  -2.9197   0.0000   0.0000   0.0000   1.1225
  -5.700   0.2469   0.00865   0.00228  -0.2008  0.3475  0.0057  -2.8484   0.0000   0.0000   0.0000   1.0813
  -5.600   0.2587   0.00865   0.00226  -0.2009  0.3424  0.0057  -2.7756   0.0000   0.0000   0.0000   1.0437
  -5.500   0.2705   0.00864   0.00226  -0.2010  0.3391  0.0057  -2.6986   0.0000   0.0000   0.0000   1.0092
  -5.400   0.2811   0.00873   0.00241  -0.2009  0.3384  0.0057  -2.5450   0.0000   0.0000   0.0000   0.9798
  -5.300   0.2929   0.00871   0.00240  -0.2010  0.3375  0.0056  -2.4778   0.0000   0.0000   0.0000   0.9503
  -5.200   0.3049   0.00869   0.00238  -0.2012  0.3365  0.0056  -2.4132   0.0000   0.0000   0.0000   0.9232
  -5.100   0.3168   0.00868   0.00236  -0.2013  0.3350  0.0056  -2.3508   0.0000   0.0000   0.0000   0.8981
  -5.000   0.3287   0.00866   0.00233  -0.2015  0.3340  0.0056  -2.2900   0.0000   0.0000   0.0000   0.8747
  -4.800   0.3509   0.00876   0.00234  -0.2015  0.3078  0.0055  -2.1781   0.0000   0.0000   0.0000   0.8347
  -4.700   0.3626   0.00876   0.00232  -0.2016  0.3036  0.0055  -2.1226   0.0000   0.0000   0.0000   0.8159
  -4.600   0.3743   0.00876   0.00230  -0.2017  0.2996  0.0055  -2.0687   0.0000   0.0000   0.0000   0.7983
  -4.500   0.3859   0.00877   0.00228  -0.2018  0.2955  0.0055  -2.0162   0.0000   0.0000   0.0000   0.7818
  -4.400   0.3976   0.00878   0.00225  -0.2019  0.2909  0.0054  -1.9661   0.0000   0.0000   0.0000   0.7662
  -4.300   0.4094   0.00877   0.00222  -0.2020  0.2864  0.0054  -1.9160   0.0000   0.0000   0.0000   0.7514
  -4.200   0.4213   0.00876   0.00220  -0.2022  0.2816  0.0054  -1.8674   0.0000   0.0000   0.0000   0.7374
  -4.100   0.4333   0.00875   0.00217  -0.2023  0.2787  0.0054  -1.8205   0.0000   0.0000   0.0000   0.7241
  -4.000   0.4453   0.00872   0.00214  -0.2025  0.2780  0.0054  -1.7764   0.0000   0.0000   0.0000   0.7114
  -3.900   0.4578   0.00867   0.00206  -0.2027  0.2772  0.0054  -1.7691   0.0000   0.0000   0.0000   0.6992
  -3.800   0.4699   0.00865   0.00203  -0.2029  0.2763  0.0055  -1.7410   0.0000   0.0000   0.0000   0.6878
  -3.700   0.4819   0.00864   0.00201  -0.2031  0.2751  0.0057  -1.7114   0.0000   0.0000   0.0000   0.6770
  -3.600   0.4948   0.00855   0.00198  -0.2035  0.2742  0.0140  -1.7278   0.0000   0.0000   0.0000   0.6665
  -3.400   0.5165   0.00871   0.00205  -0.2034  0.2497  0.0148  -1.5983   0.0000   0.0000   0.0000   0.6484
  -3.300   0.5279   0.00873   0.00207  -0.2034  0.2466  0.0152  -1.5288   0.0000   0.0000   0.0000   0.6397
  -3.200   0.5393   0.00876   0.00209  -0.2034  0.2436  0.0155  -1.4572   0.0000   0.0000   0.0000   0.6314
  -3.100   0.5505   0.00880   0.00211  -0.2035  0.2407  0.0157  -1.3846   0.0000   0.0000   0.0000   0.6235
  -3.000   0.5617   0.00884   0.00214  -0.2035  0.2377  0.0160  -1.3133   0.0000   0.0000   0.0000   0.6159
  -2.900   0.5731   0.00887   0.00216  -0.2035  0.2346  0.0162  -1.2450   0.0000   0.0000   0.0000   0.6085
  -2.800   0.5845   0.00890   0.00218  -0.2036  0.2315  0.0164  -1.1805   0.0000   0.0000   0.0000   0.6015
  -2.700   0.5961   0.00891   0.00219  -0.2037  0.2279  0.0165  -1.1202   0.0000   0.0000   0.0000   0.5946
  -2.600   0.6077   0.00892   0.00220  -0.2038  0.2246  0.0166  -1.0649   0.0000   0.0000   0.0000   0.5880
  -2.500   0.6195   0.00892   0.00219  -0.2039  0.2222  0.0166  -1.0162   0.0000   0.0000   0.0000   0.5816
  -2.400   0.6315   0.00890   0.00215  -0.2041  0.2217  0.0165  -0.9819   0.0000   0.0000   0.0000   0.5754
  -2.300   0.6416   0.00907   0.00218  -0.2039  0.1926  0.0160  -0.9833   0.0000   0.0000   0.0000   0.5698
  -2.200   0.6525   0.00915   0.00221  -0.2038  0.1856  0.0162  -0.9272   0.0000   0.0000   0.0000   0.5642
  -2.100   0.6638   0.00919   0.00223  -0.2038  0.1819  0.0163  -0.9239   0.0000   0.0000   0.0000   0.5587
  -2.000   0.6753   0.00921   0.00224  -0.2039  0.1794  0.0164  -0.9326   0.0000   0.0000   0.0000   0.5534
  -1.900   0.6868   0.00922   0.00225  -0.2040  0.1766  0.0165  -0.9413   0.0000   0.0000   0.0000   0.5483
  -1.800   0.6984   0.00924   0.00226  -0.2041  0.1740  0.0166  -0.9500   0.0000   0.0000   0.0000   0.5433
  -1.700   0.7100   0.00925   0.00227  -0.2042  0.1716  0.0167  -0.9588   0.0000   0.0000   0.0000   0.5385
  -1.600   0.7216   0.00926   0.00228  -0.2043  0.1703  0.0168  -0.9682   0.0000   0.0000   0.0000   0.5338
  -1.500   0.7332   0.00927   0.00229  -0.2044  0.1699  0.0168  -0.9786   0.0000   0.0000   0.0000   0.5292
  -1.400   0.7448   0.00928   0.00229  -0.2044  0.1696  0.0169  -0.9890   0.0000   0.0000   0.0000   0.5248
  -1.300   0.7565   0.00929   0.00230  -0.2045  0.1692  0.0169  -0.9993   0.0000   0.0000   0.0000   0.5206
  -1.200   0.7681   0.00930   0.00231  -0.2046  0.1687  0.0170  -1.0097   0.0000   0.0000   0.0000   0.5164
  -1.100   0.7797   0.00932   0.00231  -0.2047  0.1683  0.0170  -1.0201   0.0000   0.0000   0.0000   0.5124
  -1.000   0.7913   0.00933   0.00232  -0.2048  0.1677  0.0170  -1.0305   0.0000   0.0000   0.0000   0.5085
  -0.900   0.8029   0.00935   0.00233  -0.2049  0.1670  0.0171  -1.0409   0.0000   0.0000   0.0000   0.5047
  -0.800   0.8144   0.00936   0.00235  -0.2049  0.1659  0.0171  -1.0514   0.0000   0.0000   0.0000   0.5010
  -0.600   0.8357   0.00954   0.00245  -0.2048  0.1462  0.0186  -1.0720   0.0000   0.0000   0.0000   0.4941
  -0.500   0.8469   0.00960   0.00247  -0.2048  0.1427  0.0187  -1.0823   0.0000   0.0000   0.0000   0.4907
  -0.400   0.8579   0.00966   0.00251  -0.2048  0.1389  0.0189  -1.0925   0.0000   0.0000   0.0000   0.4874
  -0.300   0.8690   0.00971   0.00253  -0.2048  0.1358  0.0189  -1.1027   0.0000   0.0000   0.0000   0.4842
  -0.200   0.8803   0.00974   0.00255  -0.2048  0.1339  0.0190  -1.1130   0.0000   0.0000   0.0000   0.4811
  -0.100   0.8916   0.00978   0.00257  -0.2048  0.1318  0.0190  -1.1234   0.0000   0.0000   0.0000   0.4780
   0.000   0.9030   0.00981   0.00260  -0.2048  0.1297  0.0189  -1.1337   0.0000   0.0000   0.0000   0.4750


