xflr5 v6.59

 Calculated polar for: WORTMANN FX 63-137 AIRFOIL

 1 1 Reynolds number fixed          Mach number fixed         

 xtrf =   1.000 (top)        1.000 (bottom)
 Mach =   0.000     Re =     0.200 e 6     Ncrit =   9.000

  alpha     CL        CD       CDp       Cm    Top Xtr Bot Xtr   Cpmin    Chinge    XCp    
 ------- -------- --------- --------- -------- ------- ------- -------- --------- ---------
 -19.400  -0.4004   0.22432   0.21999  -0.0234  1.0000  0.0183  -1.4071   0.0000   0.0000   0.0000   0.1605
 -19.300  -0.3973   0.22312   0.21878  -0.0238  1.0000  0.0184  -1.3960   0.0000   0.0000   0.0000   0.1590
 -19.200  -0.3941   0.22195   0.21762  -0.0242  1.0000  0.0185  -1.3856   0.0000   0.0000   0.0000   0.1575
 -19.100  -0.3910   0.22081   0.21648  -0.0246  1.0000  0.0185  -1.3761   0.0000   0.0000   0.0000   0.1560
 -19.000  -0.3880   0.21968   0.21536  -0.0250  1.0000  0.0186  -1.3672   0.0000   0.0000   0.0000   0.1544
 -18.900  -0.3849   0.21856   0.21425  -0.0255  1.0000  0.0187  -1.3591   0.0000   0.0000   0.0000   0.1528
 -18.800  -0.3819   0.21745   0.21314  -0.0259  1.0000  0.0188  -1.3516   0.0000   0.0000   0.0000   0.1511
 -18.700  -0.3789   0.21632   0.21202  -0.0263  1.0000  0.0189  -1.3448   0.0000   0.0000   0.0000   0.1495
 -18.600  -0.3760   0.21519   0.21089  -0.0268  1.0000  0.0190  -1.3386   0.0000   0.0000   0.0000   0.1477
 -18.500  -0.3731   0.21404   0.20975  -0.0272  1.0000  0.0192  -1.3329   0.0000   0.0000   0.0000   0.1460
 -18.400  -0.3702   0.21289   0.20860  -0.0276  1.0000  0.0193  -1.3278   0.0000   0.0000   0.0000   0.1443
 -18.300  -0.3673   0.21174   0.20746  -0.0281  1.0000  0.0194  -1.3231   0.0000   0.0000   0.0000   0.1425
 -18.200  -0.3644   0.21060   0.20632  -0.0285  1.0000  0.0195  -1.3189   0.0000   0.0000   0.0000   0.1407
 -18.100  -0.3616   0.20945   0.20518  -0.0289  1.0000  0.0196  -1.3151   0.0000   0.0000   0.0000   0.1389
 -18.000  -0.3587   0.20830   0.20404  -0.0293  1.0000  0.0197  -1.3117   0.0000   0.0000   0.0000   0.1370
 -17.900  -0.3559   0.20716   0.20290  -0.0298  1.0000  0.0199  -1.3086   0.0000   0.0000   0.0000   0.1351
 -17.800  -0.3531   0.20601   0.20176  -0.0302  1.0000  0.0200  -1.3060   0.0000   0.0000   0.0000   0.1333
 -17.700  -0.3503   0.20486   0.20062  -0.0306  1.0000  0.0201  -1.3037   0.0000   0.0000   0.0000   0.1314
 -17.600  -0.3476   0.20371   0.19947  -0.0310  1.0000  0.0203  -1.3018   0.0000   0.0000   0.0000   0.1294
 -17.500  -0.3448   0.20256   0.19833  -0.0315  1.0000  0.0204  -1.3002   0.0000   0.0000   0.0000   0.1275
 -17.400  -0.3421   0.20140   0.19718  -0.0319  1.0000  0.0205  -1.2990   0.0000   0.0000   0.0000   0.1255
 -17.300  -0.3394   0.20025   0.19603  -0.0323  1.0000  0.0207  -1.2980   0.0000   0.0000   0.0000   0.1236
 -17.200  -0.3367   0.19909   0.19488  -0.0327  1.0000  0.0209  -1.2975   0.0000   0.0000   0.0000   0.1216
 -17.100  -0.3341   0.19793   0.19373  -0.0331  1.0000  0.0210  -1.2972   0.0000   0.0000   0.0000   0.1196
 -17.000  -0.3314   0.19677   0.19258  -0.0335  1.0000  0.0212  -1.2973   0.0000   0.0000   0.0000   0.1176
 -16.900  -0.3288   0.19560   0.19142  -0.0339  1.0000  0.0214  -1.2977   0.0000   0.0000   0.0000   0.1155
 -16.800  -0.3262   0.19444   0.19026  -0.0343  1.0000  0.0215  -1.2985   0.0000   0.0000   0.0000   0.1135
 -16.700  -0.3236   0.19327   0.18910  -0.0346  1.0000  0.0217  -1.2996   0.0000   0.0000   0.0000   0.1114
 -16.600  -0.3211   0.19210   0.18794  -0.0350  1.0000  0.0219  -1.3011   0.0000   0.0000   0.0000   0.1094
 -16.500  -0.3185   0.19093   0.18678  -0.0354  1.0000  0.0221  -1.3030   0.0000   0.0000   0.0000   0.1073
 -16.400  -0.3160   0.18976   0.18561  -0.0358  1.0000  0.0223  -1.3054   0.0000   0.0000   0.0000   0.1052
 -16.300  -0.3136   0.18858   0.18444  -0.0361  1.0000  0.0225  -1.3082   0.0000   0.0000   0.0000   0.1031
 -16.200  -0.3111   0.18740   0.18327  -0.0365  1.0000  0.0228  -1.3115   0.0000   0.0000   0.0000   0.1010
 -16.100  -0.3087   0.18622   0.18210  -0.0369  1.0000  0.0230  -1.3154   0.0000   0.0000   0.0000   0.0989
 -16.000  -0.3063   0.18503   0.18092  -0.0372  1.0000  0.0233  -1.3200   0.0000   0.0000   0.0000   0.0967
 -15.900  -0.3040   0.18384   0.17970  -0.0376  1.0000  0.0236  -1.3254   0.0000   0.0000   0.0000   0.0946
 -15.800  -0.3017   0.18266   0.17853  -0.0380  1.0000  0.0238  -1.3320   0.0000   0.0000   0.0000   0.0924
 -15.700  -0.2994   0.18147   0.17735  -0.0383  1.0000  0.0242  -1.3401   0.0000   0.0000   0.0000   0.0902
 -15.600  -0.2973   0.18029   0.17618  -0.0387  1.0000  0.0245  -1.3505   0.0000   0.0000   0.0000   0.0879
 -15.500  -0.2952   0.17912   0.17501  -0.0392  1.0000  0.0249  -1.3646   0.0000   0.0000   0.0000   0.0855
 -15.400  -0.2933   0.17799   0.17389  -0.0397  1.0000  0.0253  -1.3849   0.0000   0.0000   0.0000   0.0829
 -15.300  -0.2918   0.17698   0.17290  -0.0403  1.0000  0.0257  -1.4154   0.0000   0.0000   0.0000   0.0801
 -15.200  -0.2911   0.17616   0.17209  -0.0411  1.0000  0.0260  -1.4539   0.0000   0.0000   0.0000   0.0772
 -15.100  -0.2909   0.17544   0.17138  -0.0419  1.0000  0.0262  -1.4919   0.0000   0.0000   0.0000   0.0746
 -15.000  -0.2908   0.17472   0.17068  -0.0426  1.0000  0.0264  -1.5265   0.0000   0.0000   0.0000   0.0723
 -14.900  -0.2909   0.17398   0.16996  -0.0432  1.0000  0.0265  -1.5586   0.0000   0.0000   0.0000   0.0704
 -14.800  -0.2911   0.17321   0.16920  -0.0438  1.0000  0.0266  -1.5889   0.0000   0.0000   0.0000   0.0686
 -14.700  -0.2907   0.17234   0.16834  -0.0443  1.0000  0.0266  -1.6143   0.0000   0.0000   0.0000   0.0669
 -14.600  -0.2902   0.17140   0.16741  -0.0448  1.0000  0.0267  -1.6379   0.0000   0.0000   0.0000   0.0653
 -14.500  -0.2893   0.17039   0.16641  -0.0452  1.0000  0.0267  -1.6574   0.0000   0.0000   0.0000   0.0636
 -14.400  -0.2881   0.16932   0.16536  -0.0455  1.0000  0.0267  -1.6745   0.0000   0.0000   0.0000   0.0619
 -14.300  -0.2869   0.16823   0.16428  -0.0458  1.0000  0.0268  -1.6917   0.0000   0.0000   0.0000   0.0603
 -14.200  -0.2858   0.16711   0.16317  -0.0461  1.0000  0.0268  -1.7092   0.0000   0.0000   0.0000   0.0587
 -14.100  -0.2847   0.16597   0.16204  -0.0464  1.0000  0.0268  -1.7271   0.0000   0.0000   0.0000   0.0572
 -14.000  -0.2836   0.16480   0.16089  -0.0466  1.0000  0.0269  -1.7453   0.0000   0.0000   0.0000   0.0557
 -13.900  -0.2825   0.16362   0.15972  -0.0469  1.0000  0.0269  -1.7640   0.0000   0.0000   0.0000   0.0543
 -13.800  -0.2750   0.15832   0.15445  -0.0454  1.0000  0.0277  -1.7082   0.0000   0.0000   0.0000   0.0543
 -13.700  -0.2702   0.15700   0.15313  -0.0449  1.0000  0.0281  -1.6591   0.0000   0.0000   0.0000   0.0531
 -13.600  -0.2666   0.15591   0.15205  -0.0445  1.0000  0.0284  -1.6237   0.0000   0.0000   0.0000   0.0520
 -13.500  -0.2637   0.15491   0.15107  -0.0443  1.0000  0.0287  -1.5964   0.0000   0.0000   0.0000   0.0510
 -13.400  -0.2612   0.15396   0.15013  -0.0441  1.0000  0.0291  -1.5749   0.0000   0.0000   0.0000   0.0501
 -13.300  -0.2590   0.15302   0.14920  -0.0440  1.0000  0.0295  -1.5582   0.0000   0.0000   0.0000   0.0492
 -13.200  -0.2571   0.15209   0.14828  -0.0439  1.0000  0.0299  -1.5454   0.0000   0.0000   0.0000   0.0483
 -13.100  -0.2553   0.15115   0.14736  -0.0438  1.0000  0.0304  -1.5359   0.0000   0.0000   0.0000   0.0476
 -13.000  -0.2539   0.15022   0.14644  -0.0437  1.0000  0.0309  -1.5295   0.0000   0.0000   0.0000   0.0470
 -12.900  -0.2526   0.14927   0.14551  -0.0436  1.0000  0.0315  -1.5258   0.0000   0.0000   0.0000   0.0465
 -12.800  -0.2515   0.14833   0.14459  -0.0436  1.0000  0.0321  -1.5244   0.0000   0.0000   0.0000   0.0463
 -12.700  -0.2507   0.14739   0.14366  -0.0435  1.0000  0.0327  -1.5253   0.0000   0.0000   0.0000   0.0462
 -12.600  -0.2501   0.14648   0.14278  -0.0434  1.0000  0.0336  -1.5275   0.0000   0.0000   0.0000   0.0464
 -12.500  -0.2500   0.14563   0.14194  -0.0433  1.0000  0.0347  -1.5345   0.0000   0.0000   0.0000   0.0469
 -12.400  -0.2511   0.14495   0.14129  -0.0434  1.0000  0.0361  -1.5600   0.0000   0.0000   0.0000   0.0475
 -12.300  -0.2553   0.14476   0.14113  -0.0438  1.0000  0.0371  -1.6142   0.0000   0.0000   0.0000   0.0496
 -12.200  -0.2605   0.14469   0.14110  -0.0440  1.0000  0.0375  -1.6608   0.0000   0.0000   0.0000   0.0535
 -12.100  -0.2658   0.14456   0.14100  -0.0437  1.0000  0.0377  -1.6978   0.0000   0.0000   0.0000   0.0584
 -12.000  -0.2704   0.14433   0.14080  -0.0432  1.0000  0.0379  -1.7263   0.0000   0.0000   0.0000   0.0639
 -11.900  -0.2752   0.14410   0.14061  -0.0425  1.0000  0.0380  -1.7484   0.0000   0.0000   0.0000   0.0703
 -11.800  -0.2805   0.14393   0.14048  -0.0414  1.0000  0.0380  -1.7676   0.0000   0.0000   0.0000   0.0777
 -11.700  -0.2864   0.14383   0.14042  -0.0402  1.0000  0.0381  -1.7850   0.0000   0.0000   0.0000   0.0858
 -11.400  -0.2765   0.13974   0.13634  -0.0440  0.9980  0.0383  -1.8194   0.0000   0.0000   0.0000   0.0665
 -11.300  -0.2704   0.13791   0.13451  -0.0459  0.9970  0.0383  -1.8268   0.0000   0.0000   0.0000   0.0553
 -11.200  -0.2643   0.13607   0.13267  -0.0478  0.9961  0.0383  -1.8333   0.0000   0.0000   0.0000   0.0436
 -11.100  -0.2581   0.13420   0.13080  -0.0497  0.9951  0.0383  -1.8392   0.0000   0.0000   0.0000   0.0315
 -11.000  -0.2520   0.13231   0.12891  -0.0516  0.9938  0.0384  -1.8445   0.0000   0.0000   0.0000   0.0188
 -10.900  -0.2457   0.13040   0.12699  -0.0535  0.9926  0.0384  -1.8495   0.0000   0.0000   0.0000   0.0052
 -10.800  -0.2393   0.12846   0.12505  -0.0555  0.9915  0.0384  -1.8542   0.0000   0.0000   0.0000  -0.0095
 -10.700  -0.2395   0.12365   0.12026  -0.0556  0.9912  0.0393  -1.8812   0.0000   0.0000   0.0000  -0.0097
 -10.600  -0.2314   0.12182   0.11843  -0.0564  0.9906  0.0396  -1.8377   0.0000   0.0000   0.0000  -0.0221
 -10.500  -0.2235   0.12017   0.11678  -0.0572  0.9893  0.0399  -1.7973   0.0000   0.0000   0.0000  -0.0354
 -10.400  -0.2155   0.11859   0.11520  -0.0582  0.9878  0.0402  -1.7596   0.0000   0.0000   0.0000  -0.0502
 -10.300  -0.2076   0.11702   0.11362  -0.0594  0.9865  0.0405  -1.7264   0.0000   0.0000   0.0000  -0.0671
 -10.200  -0.1997   0.11543   0.11203  -0.0607  0.9854  0.0408  -1.6977   0.0000   0.0000   0.0000  -0.0860
 -10.100  -0.1920   0.11383   0.11042  -0.0622  0.9843  0.0411  -1.6731   0.0000   0.0000   0.0000  -0.1071
 -10.000  -0.1843   0.11220   0.10879  -0.0638  0.9834  0.0414  -1.6520   0.0000   0.0000   0.0000  -0.1304
  -9.900  -0.1777   0.11063   0.10722  -0.0651  0.9816  0.0417  -1.6353   0.0000   0.0000   0.0000  -0.1522
  -9.800  -0.1715   0.10908   0.10567  -0.0665  0.9794  0.0420  -1.6214   0.0000   0.0000   0.0000  -0.1742
  -9.700  -0.1649   0.10747   0.10406  -0.0681  0.9776  0.0424  -1.6091   0.0000   0.0000   0.0000  -0.2004
  -9.600  -0.1581   0.10583   0.10241  -0.0698  0.9762  0.0427  -1.5984   0.0000   0.0000   0.0000  -0.2301
  -9.500  -0.1513   0.10415   0.10074  -0.0716  0.9751  0.0431  -1.5894   0.0000   0.0000   0.0000  -0.2636
  -9.400  -0.1443   0.10245   0.09904  -0.0734  0.9741  0.0435  -1.5822   0.0000   0.0000   0.0000  -0.3014
  -9.300  -0.1390   0.10090   0.09745  -0.0749  0.9717  0.0439  -1.5786   0.0000   0.0000   0.0000  -0.3324
  -9.200  -0.1342   0.09936   0.09591  -0.0762  0.9688  0.0442  -1.5761   0.0000   0.0000   0.0000  -0.3628
  -9.100  -0.1283   0.09767   0.09422  -0.0780  0.9668  0.0447  -1.5743   0.0000   0.0000   0.0000  -0.4045
  -9.000  -0.1218   0.09590   0.09245  -0.0799  0.9652  0.0451  -1.5740   0.0000   0.0000   0.0000  -0.4548
  -8.900  -0.1152   0.09407   0.09062  -0.0821  0.9639  0.0457  -1.5880   0.0000   0.0000   0.0000  -0.5138
  -8.800  -0.1084   0.09217   0.08871  -0.0844  0.9628  0.0462  -1.6057   0.0000   0.0000   0.0000  -0.5827
  -8.700  -0.1036   0.09041   0.08696  -0.0862  0.9603  0.0467  -1.6265   0.0000   0.0000   0.0000  -0.6386
  -8.600  -0.1005   0.08878   0.08534  -0.0876  0.9565  0.0472  -1.6499   0.0000   0.0000   0.0000  -0.6795
  -8.500  -0.0954   0.08685   0.08340  -0.0898  0.9542  0.0477  -1.6794   0.0000   0.0000   0.0000  -0.7512
  -8.400  -0.0898   0.08474   0.08129  -0.0924  0.9523  0.0482  -1.7149   0.0000   0.0000   0.0000  -0.8415
  -8.300  -0.0837   0.08250   0.07905  -0.0951  0.9508  0.0485  -1.7536   0.0000   0.0000   0.0000  -0.9533
  -8.200  -0.0772   0.08021   0.07677  -0.0978  0.9496  0.0483  -1.7903   0.0000   0.0000   0.0000  -1.0899
  -8.100  -0.0703   0.07789   0.07444  -0.1004  0.9486  0.0476  -1.8258   0.0000   0.0000   0.0000  -1.2572
  -8.000  -0.0898   0.07028   0.06683  -0.1053  0.9397  0.0357  -2.2846   0.0000   0.0000   0.0000  -0.9858
  -7.900  -0.0873   0.06715   0.06370  -0.1087  0.9372  0.0352  -2.3747   0.0000   0.0000   0.0000  -1.0595
  -7.800  -0.0856   0.06306   0.05966  -0.1135  0.9348  0.0347  -2.5112   0.0000   0.0000   0.0000  -1.1419
  -7.700  -0.0902   0.05860   0.05520  -0.1180  0.9292  0.0341  -2.6766   0.0000   0.0000   0.0000  -1.1210
  -7.600  -0.1020   0.04071   0.03679  -0.1491  0.9178  0.0316  -3.3836   0.0000   0.0000   0.0000  -1.2672
  -7.500  -0.0845   0.03633   0.03205  -0.1578  0.9162  0.0322  -3.4819   0.0000   0.0000   0.0000  -1.6840
  -7.400  -0.0838   0.03499   0.03057  -0.1583  0.9096  0.0324  -3.5091   0.0000   0.0000   0.0000  -1.7060
  -7.300  -0.0709   0.03292   0.02826  -0.1616  0.9066  0.0328  -3.5197   0.0000   0.0000   0.0000  -2.1075
  -7.200  -0.0549   0.03123   0.02635  -0.1646  0.9047  0.0333  -3.4958   0.0000   0.0000   0.0000  -2.8492
  -7.100  -0.0380   0.03001   0.02495  -0.1671  0.9033  0.0340  -3.4424   0.0000   0.0000   0.0000  -4.2923
  -7.000  -0.0200   0.02822   0.02290  -0.1702  0.9020  0.0337  -3.4156   0.0000   0.0000   0.0000  -8.5052
  -6.900  -0.0016   0.02667   0.02111  -0.1729  0.9009  0.0333  -3.3743   0.0000   0.0000   0.0000  -113.2006
  -6.800   0.0168   0.02540   0.01963  -0.1753  0.8999  0.0331  -3.3185   0.0000   0.0000   0.0000  10.9694
  -6.700   0.0351   0.02434   0.01835  -0.1774  0.8989  0.0329  -3.2502   0.0000   0.0000   0.0000   5.4581
  -6.600   0.0531   0.02344   0.01730  -0.1793  0.8979  0.0328  -3.1784   0.0000   0.0000   0.0000   3.7255
  -6.500   0.0708   0.02268   0.01640  -0.1811  0.8970  0.0328  -3.1012   0.0000   0.0000   0.0000   2.8773
  -6.400   0.0775   0.02234   0.01598  -0.1805  0.8928  0.0328  -3.0529   0.0000   0.0000   0.0000   2.6429
  -6.300   0.0881   0.02192   0.01548  -0.1807  0.8897  0.0328  -2.9910   0.0000   0.0000   0.0000   2.3569
  -6.200   0.1014   0.02147   0.01494  -0.1814  0.8873  0.0329  -2.9187   0.0000   0.0000   0.0000   2.0868
  -6.100   0.1160   0.02102   0.01441  -0.1823  0.8853  0.0331  -2.8404   0.0000   0.0000   0.0000   1.8628
  -6.000   0.1313   0.02059   0.01390  -0.1833  0.8834  0.0333  -2.7585   0.0000   0.0000   0.0000   1.6825
  -5.900   0.1470   0.02019   0.01343  -0.1844  0.8818  0.0335  -2.6739   0.0000   0.0000   0.0000   1.5362
  -5.800   0.1630   0.01981   0.01298  -0.1855  0.8802  0.0338  -2.5876   0.0000   0.0000   0.0000   1.4162
  -5.700   0.1791   0.01946   0.01256  -0.1866  0.8786  0.0342  -2.5002   0.0000   0.0000   0.0000   1.3167
  -5.600   0.1953   0.01913   0.01216  -0.1876  0.8771  0.0345  -2.4126   0.0000   0.0000   0.0000   1.2334
  -5.500   0.2098   0.01886   0.01184  -0.1884  0.8752  0.0348  -2.3308   0.0000   0.0000   0.0000   1.1690
  -5.400   0.2166   0.01874   0.01170  -0.1877  0.8712  0.0351  -2.2742   0.0000   0.0000   0.0000   1.1364
  -5.300   0.2272   0.01855   0.01148  -0.1877  0.8680  0.0353  -2.2052   0.0000   0.0000   0.0000   1.0947
  -5.200   0.2395   0.01834   0.01122  -0.1880  0.8653  0.0356  -2.1308   0.0000   0.0000   0.0000   1.0522
  -5.100   0.2528   0.01814   0.01099  -0.1885  0.8629  0.0361  -2.0519   0.0000   0.0000   0.0000   1.0117
  -5.000   0.2666   0.01816   0.01096  -0.1890  0.8607  0.0371  -1.9617   0.0000   0.0000   0.0000   0.9740
  -4.800   0.2959   0.01759   0.01031  -0.1907  0.8569  0.0403  -1.7963   0.0000   0.0000   0.0000   0.9074
  -4.700   0.3111   0.01729   0.01001  -0.1918  0.8550  0.0427  -1.7079   0.0000   0.0000   0.0000   0.8786
  -4.600   0.3250   0.01725   0.00996  -0.1925  0.8529  0.0447  -1.6321   0.0000   0.0000   0.0000   0.8535
  -4.500   0.3332   0.01719   0.00991  -0.1920  0.8493  0.0457  -1.5938   0.0000   0.0000   0.0000   0.8369
  -4.400   0.3437   0.01702   0.00973  -0.1919  0.8461  0.0461  -1.5603   0.0000   0.0000   0.0000   0.8186
  -4.300   0.3555   0.01678   0.00947  -0.1921  0.8432  0.0461  -1.5304   0.0000   0.0000   0.0000   0.7999
  -4.200   0.3683   0.01654   0.00916  -0.1924  0.8406  0.0462  -1.4983   0.0000   0.0000   0.0000   0.7816
  -4.100   0.3818   0.01630   0.00889  -0.1929  0.8381  0.0462  -1.4653   0.0000   0.0000   0.0000   0.7639
  -4.000   0.3958   0.01605   0.00861  -0.1935  0.8359  0.0464  -1.4311   0.0000   0.0000   0.0000   0.7469
  -3.900   0.4103   0.01582   0.00835  -0.1942  0.8338  0.0465  -1.3959   0.0000   0.0000   0.0000   0.7308
  -3.800   0.4252   0.01561   0.00810  -0.1950  0.8318  0.0468  -1.3599   0.0000   0.0000   0.0000   0.7157
  -3.700   0.4406   0.01543   0.00787  -0.1959  0.8299  0.0471  -1.3230   0.0000   0.0000   0.0000   0.7013
  -3.600   0.4514   0.01531   0.00775  -0.1960  0.8271  0.0474  -1.2931   0.0000   0.0000   0.0000   0.6905
  -3.500   0.4624   0.01520   0.00762  -0.1961  0.8242  0.0478  -1.2626   0.0000   0.0000   0.0000   0.6800
  -3.400   0.4745   0.01508   0.00748  -0.1964  0.8214  0.0483  -1.2308   0.0000   0.0000   0.0000   0.6694
  -3.300   0.4873   0.01495   0.00732  -0.1968  0.8188  0.0489  -1.1981   0.0000   0.0000   0.0000   0.6591
  -3.200   0.5005   0.01483   0.00716  -0.1973  0.8163  0.0497  -1.1650   0.0000   0.0000   0.0000   0.6491
  -3.100   0.5142   0.01471   0.00700  -0.1978  0.8140  0.0506  -1.1317   0.0000   0.0000   0.0000   0.6393
  -3.000   0.5281   0.01460   0.00683  -0.1984  0.8118  0.0518  -1.0987   0.0000   0.0000   0.0000   0.6300
  -2.900   0.5432   0.01441   0.00661  -0.1992  0.8097  0.0550  -1.0683   0.0000   0.0000   0.0000   0.6209
  -2.800   0.5578   0.01427   0.00644  -0.2000  0.8077  0.0601  -1.0360   0.0000   0.0000   0.0000   0.6122
  -2.700   0.5724   0.01420   0.00629  -0.2006  0.8056  0.0671  -1.0052   0.0000   0.0000   0.0000   0.6040
  -2.600   0.5870   0.01402   0.00617  -0.2015  0.8033  0.0825  -0.9741   0.0000   0.0000   0.0000   0.5965
  -2.500   0.5992   0.01384   0.00610  -0.2019  0.8004  0.1173  -0.9419   0.0000   0.0000   0.0000   0.5900
  -2.400   0.6144   0.01348   0.00600  -0.2033  0.7976  0.2043  -0.9029   0.0000   0.0000   0.0000   0.5836
  -2.300   0.6278   0.01331   0.00594  -0.2039  0.7946  0.2540  -0.8692   0.0000   0.0000   0.0000   0.5774
  -2.200   0.6413   0.01317   0.00587  -0.2045  0.7916  0.2919  -0.8786   0.0000   0.0000   0.0000   0.5713
  -2.100   0.6541   0.01311   0.00582  -0.2049  0.7887  0.3179  -0.8877   0.0000   0.0000   0.0000   0.5653
  -2.000   0.6672   0.01303   0.00579  -0.2052  0.7859  0.3417  -0.8971   0.0000   0.0000   0.0000   0.5595
  -1.900   0.6803   0.01299   0.00574  -0.2055  0.7831  0.3640  -0.9066   0.0000   0.0000   0.0000   0.5538
  -1.800   0.6935   0.01297   0.00571  -0.2059  0.7804  0.3790  -0.9162   0.0000   0.0000   0.0000   0.5483
  -1.700   0.7068   0.01300   0.00572  -0.2062  0.7775  0.3941  -0.9258   0.0000   0.0000   0.0000   0.5430
  -1.600   0.7164   0.01301   0.00575  -0.2059  0.7741  0.4048  -0.9330   0.0000   0.0000   0.0000   0.5385
  -1.500   0.7267   0.01301   0.00579  -0.2057  0.7704  0.4163  -0.9422   0.0000   0.0000   0.0000   0.5340
  -1.400   0.7375   0.01301   0.00579  -0.2056  0.7667  0.4273  -0.9518   0.0000   0.0000   0.0000   0.5295
  -1.300   0.7488   0.01301   0.00577  -0.2055  0.7630  0.4364  -0.9618   0.0000   0.0000   0.0000   0.5250
  -1.200   0.7606   0.01298   0.00576  -0.2055  0.7595  0.4461  -0.9721   0.0000   0.0000   0.0000   0.5205
  -1.100   0.7727   0.01297   0.00572  -0.2055  0.7562  0.4561  -0.9827   0.0000   0.0000   0.0000   0.5162
  -1.000   0.7852   0.01297   0.00568  -0.2057  0.7529  0.4658  -0.9936   0.0000   0.0000   0.0000   0.5119
  -0.900   0.7978   0.01301   0.00570  -0.2058  0.7496  0.4758  -1.0045   0.0000   0.0000   0.0000   0.5078
  -0.800   0.8073   0.01303   0.00577  -0.2054  0.7459  0.4858  -1.0133   0.0000   0.0000   0.0000   0.5042
  -0.700   0.8175   0.01305   0.00579  -0.2052  0.7419  0.4956  -1.0226   0.0000   0.0000   0.0000   0.5005
  -0.600   0.8281   0.01306   0.00581  -0.2050  0.7379  0.5046  -1.0323   0.0000   0.0000   0.0000   0.4969
  -0.500   0.8389   0.01306   0.00585  -0.2048  0.7341  0.5150  -1.0421   0.0000   0.0000   0.0000   0.4933
  -0.400   0.8502   0.01308   0.00585  -0.2047  0.7305  0.5262  -1.0524   0.0000   0.0000   0.0000   0.4897
  -0.300   0.8620   0.01310   0.00585  -0.2046  0.7271  0.5364  -1.0629   0.0000   0.0000   0.0000   0.4863
  -0.200   0.8737   0.01314   0.00589  -0.2046  0.7238  0.5468  -1.0735   0.0000   0.0000   0.0000   0.4828
  -0.100   0.8855   0.01323   0.00595  -0.2046  0.7205  0.5579  -1.0840   0.0000   0.0000   0.0000   0.4796
   0.000   0.8947   0.01328   0.00606  -0.2041  0.7169  0.5693  -1.0927   0.0000   0.0000   0.0000   0.4765


