xflr5 v6.59

 Calculated polar for: WORTMANN FX 63-137 AIRFOIL

 1 1 Reynolds number fixed          Mach number fixed         

 xtrf =   1.000 (top)        1.000 (bottom)
 Mach =   0.000     Re =     4.700 e 6     Ncrit =   9.000

  alpha     CL        CD       CDp       Cm    Top Xtr Bot Xtr   Cpmin    Chinge    XCp    
 ------- -------- --------- --------- -------- ------- ------- -------- --------- ---------
 -15.800  -0.6559   0.05308   0.05089  -0.1410  0.8874  0.0043  -13.2326   0.0000   0.0000   0.0000   0.0043
 -15.700  -0.6854   0.04673   0.04447  -0.1464  0.8974  0.0043  -13.7020   0.0000   0.0000   0.0000   0.0070
 -15.600  -0.6973   0.04324   0.04087  -0.1498  0.8843  0.0043  -13.8727   0.0000   0.0000   0.0000   0.0064
 -15.500  -0.7059   0.04040   0.03792  -0.1526  0.8714  0.0043  -13.9800   0.0000   0.0000   0.0000   0.0057
 -15.300  -0.7140   0.03649   0.03382  -0.1563  0.8411  0.0043  -14.0293   0.0000   0.0000   0.0000   0.0039
 -15.200  -0.7170   0.03475   0.03201  -0.1579  0.8289  0.0043  -14.0327   0.0000   0.0000   0.0000   0.0030
 -15.100  -0.7180   0.03328   0.03049  -0.1592  0.8201  0.0043  -14.0049   0.0000   0.0000   0.0000   0.0018
 -14.900  -0.4622   0.07147   0.06917  -0.1280  0.7357  0.0045  -9.6837   0.0000   0.0000   0.0000  -0.0628
 -14.800  -0.4609   0.07017   0.06786  -0.1288  0.7304  0.0045  -9.6448   0.0000   0.0000   0.0000  -0.0652
 -14.700  -0.4605   0.06865   0.06634  -0.1297  0.7253  0.0045  -9.6236   0.0000   0.0000   0.0000  -0.0672
 -14.600  -0.4630   0.06667   0.06435  -0.1310  0.7222  0.0045  -9.6506   0.0000   0.0000   0.0000  -0.0680
 -14.500  -0.4672   0.06441   0.06208  -0.1324  0.7209  0.0045  -9.7047   0.0000   0.0000   0.0000  -0.0681
 -14.400  -0.4728   0.06195   0.05962  -0.1341  0.7206  0.0045  -9.7802   0.0000   0.0000   0.0000  -0.0677
 -14.300  -0.4786   0.05932   0.05698  -0.1358  0.7203  0.0045  -9.8601   0.0000   0.0000   0.0000  -0.0673
 -14.200  -0.4853   0.05651   0.05415  -0.1378  0.7201  0.0045  -9.9554   0.0000   0.0000   0.0000  -0.0668
 -14.100  -0.4922   0.05360   0.05122  -0.1399  0.7199  0.0045  -10.0510   0.0000   0.0000   0.0000  -0.0665
 -14.000  -0.4995   0.05069   0.04829  -0.1421  0.7198  0.0045  -10.1485   0.0000   0.0000   0.0000  -0.0661
 -13.900  -0.5068   0.04780   0.04537  -0.1444  0.7195  0.0045  -10.2426   0.0000   0.0000   0.0000  -0.0658
 -13.800  -0.5144   0.04492   0.04246  -0.1469  0.7193  0.0045  -10.3366   0.0000   0.0000   0.0000  -0.0657
 -13.700  -0.5220   0.04206   0.03957  -0.1494  0.7190  0.0046  -10.4282   0.0000   0.0000   0.0000  -0.0656
 -13.600  -0.5299   0.03930   0.03676  -0.1519  0.7187  0.0046  -10.5191   0.0000   0.0000   0.0000  -0.0653
 -13.500  -0.5381   0.03656   0.03398  -0.1545  0.7184  0.0046  -10.6099   0.0000   0.0000   0.0000  -0.0650
 -13.400  -0.5465   0.03389   0.03125  -0.1571  0.7180  0.0046  -10.7016   0.0000   0.0000   0.0000  -0.0645
 -13.300  -0.5553   0.03128   0.02858  -0.1596  0.7175  0.0045  -10.7942   0.0000   0.0000   0.0000  -0.0637
 -13.200  -0.5645   0.02877   0.02601  -0.1620  0.7169  0.0045  -10.8866   0.0000   0.0000   0.0000  -0.0624
 -13.100  -0.5742   0.02660   0.02376  -0.1636  0.7161  0.0045  -10.9711   0.0000   0.0000   0.0000  -0.0596
 -13.000  -0.5831   0.02351   0.02054  -0.1679  0.7153  0.0045  -11.0978   0.0000   0.0000   0.0000  -0.0618
  -7.400   0.0488   0.00874   0.00268  -0.1995  0.3391  0.0063  -4.0816   0.0000   0.0000   0.0000   4.4656
  -7.300   0.0608   0.00870   0.00263  -0.1997  0.3384  0.0063  -4.0057   0.0000   0.0000   0.0000   3.6307
  -7.200   0.0729   0.00866   0.00259  -0.1999  0.3376  0.0062  -3.9301   0.0000   0.0000   0.0000   3.0727
  -7.100   0.0849   0.00862   0.00255  -0.2001  0.3367  0.0062  -3.8550   0.0000   0.0000   0.0000   2.6735
  -7.000   0.0969   0.00859   0.00251  -0.2002  0.3353  0.0062  -3.7804   0.0000   0.0000   0.0000   2.3742
  -6.900   0.1090   0.00856   0.00246  -0.2004  0.3352  0.0061  -3.7057   0.0000   0.0000   0.0000   2.1399
  -6.800   0.1210   0.00853   0.00242  -0.2006  0.3349  0.0061  -3.6317   0.0000   0.0000   0.0000   1.9524
  -6.600   0.1435   0.00859   0.00241  -0.2006  0.3096  0.0060  -3.4903   0.0000   0.0000   0.0000   1.6847
  -6.500   0.1553   0.00858   0.00238  -0.2007  0.3051  0.0059  -3.4184   0.0000   0.0000   0.0000   1.5762
  -6.400   0.1670   0.00858   0.00236  -0.2009  0.3013  0.0059  -3.3470   0.0000   0.0000   0.0000   1.4832
  -6.300   0.1787   0.00858   0.00234  -0.2009  0.2975  0.0059  -3.2757   0.0000   0.0000   0.0000   1.4027
  -6.200   0.1903   0.00858   0.00232  -0.2010  0.2937  0.0058  -3.2043   0.0000   0.0000   0.0000   1.3321
  -6.100   0.2020   0.00858   0.00231  -0.2011  0.2896  0.0058  -3.1324   0.0000   0.0000   0.0000   1.2695
  -6.000   0.2138   0.00858   0.00229  -0.2013  0.2855  0.0058  -3.0595   0.0000   0.0000   0.0000   1.2135
  -5.900   0.2256   0.00857   0.00228  -0.2014  0.2811  0.0058  -2.9851   0.0000   0.0000   0.0000   1.1632
  -5.800   0.2374   0.00856   0.00227  -0.2015  0.2787  0.0058  -2.9085   0.0000   0.0000   0.0000   1.1179
  -5.700   0.2492   0.00856   0.00227  -0.2016  0.2780  0.0057  -2.8257   0.0000   0.0000   0.0000   1.0770
  -5.600   0.2593   0.00869   0.00249  -0.2014  0.2774  0.0057  -2.6472   0.0000   0.0000   0.0000   1.0434
  -5.500   0.2712   0.00867   0.00247  -0.2015  0.2766  0.0057  -2.5792   0.0000   0.0000   0.0000   1.0088
  -5.400   0.2831   0.00866   0.00246  -0.2016  0.2755  0.0056  -2.5141   0.0000   0.0000   0.0000   0.9771
  -5.300   0.2951   0.00864   0.00244  -0.2018  0.2750  0.0056  -2.4510   0.0000   0.0000   0.0000   0.9479
  -5.200   0.3070   0.00861   0.00241  -0.2019  0.2747  0.0055  -2.3896   0.0000   0.0000   0.0000   0.9209
  -5.100   0.3175   0.00872   0.00244  -0.2018  0.2521  0.0055  -2.3341   0.0000   0.0000   0.0000   0.8981
  -5.000   0.3293   0.00871   0.00241  -0.2020  0.2475  0.0054  -2.2765   0.0000   0.0000   0.0000   0.8751
  -4.900   0.3411   0.00871   0.00239  -0.2021  0.2445  0.0054  -2.2201   0.0000   0.0000   0.0000   0.8535
  -4.800   0.3529   0.00870   0.00237  -0.2022  0.2416  0.0053  -2.1653   0.0000   0.0000   0.0000   0.8335
  -4.700   0.3647   0.00870   0.00234  -0.2023  0.2387  0.0053  -2.1117   0.0000   0.0000   0.0000   0.8147
  -4.600   0.3765   0.00870   0.00232  -0.2024  0.2357  0.0053  -2.0594   0.0000   0.0000   0.0000   0.7971
  -4.500   0.3884   0.00869   0.00229  -0.2026  0.2327  0.0052  -2.0084   0.0000   0.0000   0.0000   0.7805
  -4.400   0.4003   0.00867   0.00225  -0.2027  0.2291  0.0052  -1.9595   0.0000   0.0000   0.0000   0.7648
  -4.300   0.4123   0.00866   0.00222  -0.2029  0.2256  0.0051  -1.9111   0.0000   0.0000   0.0000   0.7500
  -4.200   0.4243   0.00864   0.00219  -0.2030  0.2229  0.0051  -1.8645   0.0000   0.0000   0.0000   0.7361
  -4.100   0.4363   0.00862   0.00216  -0.2032  0.2219  0.0051  -1.8201   0.0000   0.0000   0.0000   0.7228
  -4.000   0.4490   0.00856   0.00207  -0.2035  0.2215  0.0050  -1.8221   0.0000   0.0000   0.0000   0.7099
  -3.900   0.4610   0.00854   0.00205  -0.2036  0.2210  0.0050  -1.7858   0.0000   0.0000   0.0000   0.6981
  -3.800   0.4730   0.00853   0.00203  -0.2038  0.2205  0.0050  -1.7435   0.0000   0.0000   0.0000   0.6868
  -3.700   0.4849   0.00852   0.00202  -0.2039  0.2200  0.0050  -1.7003   0.0000   0.0000   0.0000   0.6762
  -3.600   0.4968   0.00851   0.00201  -0.2041  0.2193  0.0050  -1.6581   0.0000   0.0000   0.0000   0.6661
  -3.500   0.5096   0.00844   0.00198  -0.2044  0.2183  0.0134  -1.6828   0.0000   0.0000   0.0000   0.6561
  -3.400   0.5214   0.00844   0.00198  -0.2045  0.2181  0.0140  -1.6206   0.0000   0.0000   0.0000   0.6470
  -3.200   0.5434   0.00857   0.00204  -0.2045  0.1951  0.0147  -1.5022   0.0000   0.0000   0.0000   0.6305
  -3.100   0.5549   0.00859   0.00205  -0.2046  0.1931  0.0149  -1.4413   0.0000   0.0000   0.0000   0.6225
  -3.000   0.5665   0.00861   0.00205  -0.2046  0.1912  0.0152  -1.3803   0.0000   0.0000   0.0000   0.6149
  -2.900   0.5780   0.00863   0.00206  -0.2047  0.1892  0.0154  -1.3193   0.0000   0.0000   0.0000   0.6075
  -2.800   0.5895   0.00865   0.00207  -0.2048  0.1873  0.0155  -1.2588   0.0000   0.0000   0.0000   0.6005
  -2.700   0.6010   0.00867   0.00208  -0.2048  0.1853  0.0157  -1.1996   0.0000   0.0000   0.0000   0.5937
  -2.600   0.6125   0.00869   0.00209  -0.2049  0.1834  0.0158  -1.1434   0.0000   0.0000   0.0000   0.5872
  -2.500   0.6242   0.00870   0.00209  -0.2050  0.1813  0.0158  -1.0929   0.0000   0.0000   0.0000   0.5809
  -2.400   0.6359   0.00872   0.00208  -0.2051  0.1768  0.0157  -1.0550   0.0000   0.0000   0.0000   0.5748
  -2.300   0.6473   0.00875   0.00209  -0.2051  0.1674  0.0153  -1.0218   0.0000   0.0000   0.0000   0.5689
  -2.200   0.6589   0.00876   0.00209  -0.2052  0.1664  0.0155  -0.9688   0.0000   0.0000   0.0000   0.5633
  -2.100   0.6706   0.00877   0.00210  -0.2053  0.1662  0.0156  -0.9282   0.0000   0.0000   0.0000   0.5578
  -2.000   0.6809   0.00889   0.00217  -0.2052  0.1491  0.0157  -0.9362   0.0000   0.0000   0.0000   0.5528
  -1.900   0.6923   0.00893   0.00218  -0.2052  0.1453  0.0158  -0.9448   0.0000   0.0000   0.0000   0.5477
  -1.800   0.7038   0.00895   0.00220  -0.2053  0.1437  0.0160  -0.9535   0.0000   0.0000   0.0000   0.5427
  -1.700   0.7153   0.00897   0.00221  -0.2053  0.1422  0.0161  -0.9632   0.0000   0.0000   0.0000   0.5380
  -1.600   0.7267   0.00900   0.00222  -0.2054  0.1407  0.0162  -0.9734   0.0000   0.0000   0.0000   0.5333
  -1.500   0.7381   0.00903   0.00224  -0.2054  0.1392  0.0162  -0.9837   0.0000   0.0000   0.0000   0.5289
  -1.400   0.7496   0.00906   0.00225  -0.2055  0.1377  0.0163  -0.9939   0.0000   0.0000   0.0000   0.5245
  -1.300   0.7610   0.00908   0.00227  -0.2056  0.1362  0.0164  -1.0042   0.0000   0.0000   0.0000   0.5203
  -1.200   0.7725   0.00910   0.00228  -0.2056  0.1347  0.0165  -1.0145   0.0000   0.0000   0.0000   0.5162
  -1.100   0.7840   0.00912   0.00229  -0.2057  0.1332  0.0165  -1.0248   0.0000   0.0000   0.0000   0.5122
  -1.000   0.7955   0.00914   0.00231  -0.2057  0.1316  0.0165  -1.0351   0.0000   0.0000   0.0000   0.5083
  -0.900   0.8070   0.00916   0.00232  -0.2058  0.1300  0.0166  -1.0455   0.0000   0.0000   0.0000   0.5046
  -0.800   0.8185   0.00918   0.00234  -0.2059  0.1280  0.0166  -1.0558   0.0000   0.0000   0.0000   0.5009
  -0.700   0.8300   0.00921   0.00236  -0.2059  0.1250  0.0167  -1.0661   0.0000   0.0000   0.0000   0.4973
  -0.600   0.8414   0.00923   0.00238  -0.2060  0.1238  0.0167  -1.0765   0.0000   0.0000   0.0000   0.4939
  -0.500   0.8529   0.00925   0.00240  -0.2060  0.1234  0.0167  -1.0869   0.0000   0.0000   0.0000   0.4905
  -0.400   0.8644   0.00927   0.00241  -0.2061  0.1231  0.0168  -1.0973   0.0000   0.0000   0.0000   0.4872
  -0.300   0.8758   0.00929   0.00243  -0.2062  0.1228  0.0169  -1.1077   0.0000   0.0000   0.0000   0.4840
  -0.200   0.8873   0.00931   0.00245  -0.2062  0.1225  0.0170  -1.1182   0.0000   0.0000   0.0000   0.4809
   0.000   0.9103   0.00935   0.00247  -0.2064  0.1217  0.0182  -1.1391   0.0000   0.0000   0.0000   0.4749


