xflr5 v6.59

 Calculated polar for: WORTMANN FX 63-137 AIRFOIL

 1 1 Reynolds number fixed          Mach number fixed         

 xtrf =   1.000 (top)        1.000 (bottom)
 Mach =   0.000     Re =     3.300 e 6     Ncrit =   9.000

  alpha     CL        CD       CDp       Cm    Top Xtr Bot Xtr   Cpmin    Chinge    XCp    
 ------- -------- --------- --------- -------- ------- ------- -------- --------- ---------
 -17.800  -0.2900   0.19383   0.19266  -0.0507  0.9710  0.0045  -1.4358   0.0000   0.0000   0.0000   0.0352
 -17.700  -0.2670   0.18973   0.18853  -0.0584  0.9656  0.0045  -1.4313   0.0000   0.0000   0.0000  -0.0124
 -17.600  -0.2429   0.18555   0.18428  -0.0665  0.9574  0.0045  -1.4266   0.0000   0.0000   0.0000  -0.0724
 -17.500  -0.2179   0.18132   0.17997  -0.0749  0.9456  0.0045  -1.4220   0.0000   0.0000   0.0000  -0.1487
 -17.400  -0.1987   0.17799   0.17642  -0.0811  0.9096  0.0045  -1.4196   0.0000   0.0000   0.0000  -0.2194
 -17.300  -0.1938   0.17661   0.17480  -0.0823  0.8613  0.0045  -1.4224   0.0000   0.0000   0.0000  -0.2371
 -17.200  -0.1906   0.17537   0.17348  -0.0829  0.8457  0.0045  -1.4264   0.0000   0.0000   0.0000  -0.2478
 -17.100  -0.1874   0.17410   0.17216  -0.0834  0.8354  0.0045  -1.4306   0.0000   0.0000   0.0000  -0.2590
 -17.000  -0.1843   0.17284   0.17085  -0.0840  0.8268  0.0045  -1.4350   0.0000   0.0000   0.0000  -0.2704
 -16.900  -0.1812   0.17156   0.16954  -0.0846  0.8183  0.0045  -1.4395   0.0000   0.0000   0.0000  -0.2822
 -16.800  -0.1781   0.17030   0.16823  -0.0851  0.8087  0.0045  -1.4443   0.0000   0.0000   0.0000  -0.2942
 -16.700  -0.1750   0.16902   0.16692  -0.0857  0.8015  0.0045  -1.4492   0.0000   0.0000   0.0000  -0.3066
 -16.600  -0.1719   0.16773   0.16561  -0.0863  0.7970  0.0045  -1.4544   0.0000   0.0000   0.0000  -0.3198
 -16.500  -0.1688   0.16643   0.16429  -0.0868  0.7922  0.0045  -1.4599   0.0000   0.0000   0.0000  -0.3332
 -16.400  -0.1657   0.16514   0.16298  -0.0874  0.7877  0.0045  -1.4655   0.0000   0.0000   0.0000  -0.3471
 -16.300  -0.1627   0.16385   0.16167  -0.0879  0.7828  0.0045  -1.4715   0.0000   0.0000   0.0000  -0.3614
 -16.200  -0.1596   0.16255   0.16035  -0.0885  0.7779  0.0045  -1.4777   0.0000   0.0000   0.0000  -0.3762
 -16.100  -0.1566   0.16124   0.15903  -0.0891  0.7752  0.0045  -1.4842   0.0000   0.0000   0.0000  -0.3917
 -16.000  -0.1536   0.15994   0.15771  -0.0896  0.7707  0.0045  -1.4911   0.0000   0.0000   0.0000  -0.4075
 -15.900  -0.1507   0.15866   0.15640  -0.0901  0.7624  0.0045  -1.4984   0.0000   0.0000   0.0000  -0.4231
 -15.800  -0.1480   0.15741   0.15510  -0.0906  0.7508  0.0045  -1.5060   0.0000   0.0000   0.0000  -0.4383
 -15.700  -0.1451   0.15612   0.15378  -0.0911  0.7451  0.0045  -1.5141   0.0000   0.0000   0.0000  -0.4550
 -15.600  -0.1423   0.15483   0.15247  -0.0917  0.7398  0.0045  -1.5228   0.0000   0.0000   0.0000  -0.4721
 -15.500  -0.1396   0.15354   0.15116  -0.0922  0.7343  0.0045  -1.5322   0.0000   0.0000   0.0000  -0.4894
 -15.400  -0.1369   0.15227   0.14985  -0.0926  0.7277  0.0045  -1.5424   0.0000   0.0000   0.0000  -0.5069
 -15.300  -0.1343   0.15098   0.14854  -0.0932  0.7215  0.0045  -1.5535   0.0000   0.0000   0.0000  -0.5252
 -15.200  -0.1316   0.14966   0.14722  -0.0937  0.7195  0.0045  -1.5662   0.0000   0.0000   0.0000  -0.5444
 -15.100  -0.1291   0.14835   0.14590  -0.0942  0.7173  0.0045  -1.5808   0.0000   0.0000   0.0000  -0.5638
 -15.000  -0.1267   0.14699   0.14453  -0.0947  0.7134  0.0045  -1.5990   0.0000   0.0000   0.0000  -0.5831
 -14.900  -0.1245   0.14556   0.14307  -0.0952  0.7057  0.0044  -1.6271   0.0000   0.0000   0.0000  -0.6009
 -11.200  -0.0634   0.08977   0.08689  -0.1176  0.5718  0.0117  -2.6004   0.0000   0.0000   0.0000  -1.7439
 -11.100  -0.0600   0.08897   0.08605  -0.1179  0.5627  0.0118  -2.5624   0.0000   0.0000   0.0000  -1.8625
 -11.000  -0.0563   0.08815   0.08521  -0.1183  0.5581  0.0119  -2.5231   0.0000   0.0000   0.0000  -2.0057
 -10.900  -0.0525   0.08733   0.08438  -0.1188  0.5536  0.0120  -2.4830   0.0000   0.0000   0.0000  -2.1733
 -10.800  -0.0487   0.08652   0.08355  -0.1192  0.5491  0.0122  -2.4422   0.0000   0.0000   0.0000  -2.3696
 -10.700  -0.0449   0.08572   0.08274  -0.1196  0.5445  0.0123  -2.4005   0.0000   0.0000   0.0000  -2.6024
 -10.600  -0.0409   0.08493   0.08193  -0.1200  0.5397  0.0125  -2.3580   0.0000   0.0000   0.0000  -2.8876
 -10.500  -0.0368   0.08414   0.08113  -0.1204  0.5348  0.0128  -2.3144   0.0000   0.0000   0.0000  -3.2471
 -10.400  -0.0325   0.08336   0.08034  -0.1209  0.5322  0.0131  -2.2692   0.0000   0.0000   0.0000  -3.7215
 -10.300  -0.0280   0.08259   0.07958  -0.1213  0.5309  0.0134  -2.2228   0.0000   0.0000   0.0000  -4.3626
 -10.200  -0.0235   0.08185   0.07883  -0.1217  0.5294  0.0139  -2.1753   0.0000   0.0000   0.0000  -5.2756
 -10.100  -0.0187   0.08113   0.07811  -0.1222  0.5273  0.0144  -2.1270   0.0000   0.0000   0.0000  -6.6970
  -9.000  -0.1407   0.00951   0.00407  -0.1961  0.5598  0.0064  -5.6904   0.0000   0.0000   0.0000  -1.1981
  -8.900  -0.1292   0.00945   0.00396  -0.1962  0.5485  0.0064  -5.5807   0.0000   0.0000   0.0000  -1.3264
  -8.800  -0.1175   0.00937   0.00384  -0.1964  0.5407  0.0064  -5.4699   0.0000   0.0000   0.0000  -1.4850
  -8.700  -0.1055   0.00929   0.00373  -0.1967  0.5342  0.0063  -5.3586   0.0000   0.0000   0.0000  -1.6839
  -8.600  -0.0933   0.00920   0.00363  -0.1969  0.5317  0.0063  -5.2472   0.0000   0.0000   0.0000  -1.9381
  -8.500  -0.0811   0.00912   0.00353  -0.1972  0.5301  0.0063  -5.1366   0.0000   0.0000   0.0000  -2.2685
  -8.400  -0.0690   0.00905   0.00343  -0.1974  0.5278  0.0063  -5.0272   0.0000   0.0000   0.0000  -2.7130
  -8.300  -0.0569   0.00898   0.00335  -0.1976  0.5257  0.0062  -4.9186   0.0000   0.0000   0.0000  -3.3459
  -8.200  -0.0457   0.00898   0.00329  -0.1977  0.5117  0.0062  -4.8152   0.0000   0.0000   0.0000  -4.2256
  -8.100  -0.0345   0.00899   0.00323  -0.1977  0.4968  0.0062  -4.7127   0.0000   0.0000   0.0000  -5.6721
  -8.000  -0.0228   0.00895   0.00316  -0.1979  0.4906  0.0061  -4.6083   0.0000   0.0000   0.0000  -8.7269
  -7.900  -0.0111   0.00893   0.00309  -0.1980  0.4844  0.0061  -4.5052   0.0000   0.0000   0.0000  -18.1409
  -7.800   0.0005   0.00891   0.00303  -0.1981  0.4780  0.0061  -4.4029   0.0000   0.0000   0.0000  386.4655
  -7.700   0.0123   0.00887   0.00297  -0.1983  0.4710  0.0061  -4.3008   0.0000   0.0000   0.0000  16.8332
  -7.600   0.0244   0.00883   0.00291  -0.1985  0.4668  0.0060  -4.2196   0.0000   0.0000   0.0000   8.6523
  -7.500   0.0364   0.00878   0.00285  -0.1987  0.4653  0.0060  -4.1430   0.0000   0.0000   0.0000   5.8685
  -7.400   0.0485   0.00873   0.00279  -0.1989  0.4633  0.0060  -4.0671   0.0000   0.0000   0.0000   4.4746
  -7.300   0.0605   0.00869   0.00273  -0.1991  0.4615  0.0060  -3.9915   0.0000   0.0000   0.0000   3.6350
  -6.700   0.1299   0.00869   0.00251  -0.1996  0.4161  0.0059  -3.5562   0.0000   0.0000   0.0000   1.8283
  -6.600   0.1416   0.00868   0.00248  -0.1997  0.4106  0.0059  -3.4841   0.0000   0.0000   0.0000   1.6979
  -6.500   0.1534   0.00866   0.00244  -0.1999  0.4048  0.0059  -3.4119   0.0000   0.0000   0.0000   1.5866
  -6.400   0.1654   0.00863   0.00241  -0.2000  0.4020  0.0059  -3.3396   0.0000   0.0000   0.0000   1.4903
  -6.300   0.1773   0.00860   0.00238  -0.2002  0.4008  0.0059  -3.2674   0.0000   0.0000   0.0000   1.4069
  -6.200   0.1893   0.00858   0.00234  -0.2003  0.3995  0.0059  -3.1956   0.0000   0.0000   0.0000   1.3341
  -6.100   0.2012   0.00856   0.00232  -0.2005  0.3974  0.0059  -3.1244   0.0000   0.0000   0.0000   1.2702
  -5.900   0.2240   0.00860   0.00230  -0.2006  0.3799  0.0058  -2.9865   0.0000   0.0000   0.0000   1.1661
  -5.800   0.2352   0.00864   0.00229  -0.2006  0.3682  0.0058  -2.9174   0.0000   0.0000   0.0000   1.1222
  -5.700   0.2469   0.00864   0.00228  -0.2007  0.3637  0.0058  -2.8461   0.0000   0.0000   0.0000   1.0811
  -5.600   0.2584   0.00865   0.00227  -0.2008  0.3594  0.0057  -2.7735   0.0000   0.0000   0.0000   1.0439
  -5.500   0.2699   0.00867   0.00227  -0.2008  0.3550  0.0057  -2.6969   0.0000   0.0000   0.0000   1.0101
  -5.300   0.2919   0.00878   0.00242  -0.2008  0.3454  0.0057  -2.4801   0.0000   0.0000   0.0000   0.9520
  -5.200   0.3037   0.00877   0.00240  -0.2009  0.3409  0.0057  -2.4155   0.0000   0.0000   0.0000   0.9248
  -5.100   0.3156   0.00875   0.00238  -0.2010  0.3388  0.0056  -2.3527   0.0000   0.0000   0.0000   0.8995
  -5.000   0.3276   0.00873   0.00236  -0.2012  0.3380  0.0056  -2.2917   0.0000   0.0000   0.0000   0.8760
  -4.900   0.3395   0.00871   0.00233  -0.2014  0.3370  0.0056  -2.2324   0.0000   0.0000   0.0000   0.8542
  -4.800   0.3515   0.00869   0.00230  -0.2015  0.3358  0.0056  -2.1746   0.0000   0.0000   0.0000   0.8338
  -4.700   0.3634   0.00867   0.00228  -0.2017  0.3341  0.0055  -2.1183   0.0000   0.0000   0.0000   0.8148
  -4.600   0.3755   0.00864   0.00225  -0.2018  0.3336  0.0055  -2.0632   0.0000   0.0000   0.0000   0.7969
  -4.500   0.3860   0.00874   0.00227  -0.2017  0.3143  0.0055  -2.0132   0.0000   0.0000   0.0000   0.7815
  -4.400   0.3975   0.00876   0.00225  -0.2018  0.3054  0.0055  -1.9633   0.0000   0.0000   0.0000   0.7661
  -4.300   0.4092   0.00877   0.00222  -0.2019  0.3012  0.0055  -1.9130   0.0000   0.0000   0.0000   0.7514
  -4.200   0.4209   0.00877   0.00220  -0.2020  0.2971  0.0055  -1.8645   0.0000   0.0000   0.0000   0.7375
  -4.100   0.4325   0.00878   0.00218  -0.2021  0.2930  0.0055  -1.8178   0.0000   0.0000   0.0000   0.7244
  -4.000   0.4443   0.00879   0.00216  -0.2022  0.2887  0.0055  -1.7732   0.0000   0.0000   0.0000   0.7119
  -3.900   0.4563   0.00877   0.00211  -0.2024  0.2839  0.0055  -1.7441   0.0000   0.0000   0.0000   0.6999
  -3.800   0.4686   0.00873   0.00206  -0.2026  0.2799  0.0056  -1.7361   0.0000   0.0000   0.0000   0.6883
  -3.700   0.4818   0.00863   0.00200  -0.2030  0.2784  0.0136  -1.7913   0.0000   0.0000   0.0000   0.6770
  -3.600   0.4936   0.00863   0.00200  -0.2032  0.2776  0.0142  -1.7237   0.0000   0.0000   0.0000   0.6669
  -3.500   0.5053   0.00863   0.00200  -0.2033  0.2768  0.0147  -1.6547   0.0000   0.0000   0.0000   0.6573
  -3.400   0.5169   0.00864   0.00201  -0.2034  0.2757  0.0150  -1.5834   0.0000   0.0000   0.0000   0.6481
  -3.300   0.5285   0.00865   0.00203  -0.2034  0.2743  0.0154  -1.5096   0.0000   0.0000   0.0000   0.6394
  -3.200   0.5400   0.00867   0.00205  -0.2035  0.2739  0.0157  -1.4338   0.0000   0.0000   0.0000   0.6310
  -3.100   0.5501   0.00880   0.00213  -0.2033  0.2563  0.0159  -1.3636   0.0000   0.0000   0.0000   0.6235
  -3.000   0.5611   0.00886   0.00217  -0.2033  0.2481  0.0162  -1.2936   0.0000   0.0000   0.0000   0.6160
  -2.900   0.5724   0.00889   0.00219  -0.2034  0.2450  0.0164  -1.2262   0.0000   0.0000   0.0000   0.6086
  -2.800   0.5838   0.00892   0.00221  -0.2034  0.2420  0.0165  -1.1629   0.0000   0.0000   0.0000   0.6016
  -2.700   0.5952   0.00895   0.00223  -0.2035  0.2390  0.0166  -1.1037   0.0000   0.0000   0.0000   0.5948
  -2.600   0.6066   0.00897   0.00224  -0.2035  0.2359  0.0167  -1.0491   0.0000   0.0000   0.0000   0.5882
  -2.500   0.6183   0.00899   0.00223  -0.2036  0.2328  0.0168  -1.0012   0.0000   0.0000   0.0000   0.5818
  -2.400   0.6301   0.00898   0.00220  -0.2038  0.2295  0.0167  -0.9672   0.0000   0.0000   0.0000   0.5756
  -2.300   0.6421   0.00899   0.00213  -0.2039  0.2186  0.0162  -0.9649   0.0000   0.0000   0.0000   0.5696
  -2.200   0.6518   0.00917   0.00222  -0.2036  0.1948  0.0163  -0.9144   0.0000   0.0000   0.0000   0.5643
  -2.100   0.6630   0.00922   0.00225  -0.2037  0.1897  0.0165  -0.9232   0.0000   0.0000   0.0000   0.5588
  -2.000   0.6743   0.00925   0.00227  -0.2037  0.1866  0.0166  -0.9318   0.0000   0.0000   0.0000   0.5535
  -1.900   0.6857   0.00928   0.00228  -0.2037  0.1842  0.0167  -0.9405   0.0000   0.0000   0.0000   0.5484
  -1.800   0.6971   0.00931   0.00229  -0.2038  0.1818  0.0167  -0.9492   0.0000   0.0000   0.0000   0.5434
  -1.700   0.7086   0.00933   0.00230  -0.2039  0.1794  0.0168  -0.9579   0.0000   0.0000   0.0000   0.5386
  -1.600   0.7201   0.00935   0.00231  -0.2040  0.1767  0.0169  -0.9668   0.0000   0.0000   0.0000   0.5339
  -1.500   0.7317   0.00936   0.00232  -0.2040  0.1740  0.0170  -0.9772   0.0000   0.0000   0.0000   0.5294
  -1.400   0.7433   0.00938   0.00232  -0.2041  0.1717  0.0170  -0.9876   0.0000   0.0000   0.0000   0.5250
  -1.300   0.7549   0.00939   0.00233  -0.2042  0.1703  0.0171  -0.9980   0.0000   0.0000   0.0000   0.5207
  -1.200   0.7665   0.00940   0.00234  -0.2043  0.1699  0.0171  -1.0084   0.0000   0.0000   0.0000   0.5165
  -1.100   0.7782   0.00941   0.00234  -0.2044  0.1695  0.0171  -1.0188   0.0000   0.0000   0.0000   0.5125
  -1.000   0.7898   0.00942   0.00235  -0.2045  0.1691  0.0172  -1.0293   0.0000   0.0000   0.0000   0.5086
  -0.800   0.8129   0.00945   0.00237  -0.2047  0.1682  0.0186  -1.0501   0.0000   0.0000   0.0000   0.5011
  -0.700   0.8245   0.00946   0.00237  -0.2047  0.1676  0.0187  -1.0605   0.0000   0.0000   0.0000   0.4975
  -0.600   0.8361   0.00948   0.00239  -0.2048  0.1666  0.0188  -1.0710   0.0000   0.0000   0.0000   0.4940
  -0.400   0.8570   0.00970   0.00251  -0.2046  0.1442  0.0190  -1.0916   0.0000   0.0000   0.0000   0.4874
  -0.300   0.8680   0.00976   0.00254  -0.2045  0.1406  0.0191  -1.1019   0.0000   0.0000   0.0000   0.4842
  -0.200   0.8792   0.00980   0.00257  -0.2045  0.1384  0.0191  -1.1121   0.0000   0.0000   0.0000   0.4811
  -0.100   0.8904   0.00984   0.00259  -0.2046  0.1365  0.0191  -1.1224   0.0000   0.0000   0.0000   0.4780
   0.000   0.9017   0.00988   0.00262  -0.2046  0.1346  0.0189  -1.1327   0.0000   0.0000   0.0000   0.4750


