xflr5 v6.59

 Calculated polar for: WORTMANN FX 63-137 AIRFOIL

 1 1 Reynolds number fixed          Mach number fixed         

 xtrf =   1.000 (top)        1.000 (bottom)
 Mach =   0.000     Re =     0.300 e 6     Ncrit =   9.000

  alpha     CL        CD       CDp       Cm    Top Xtr Bot Xtr   Cpmin    Chinge    XCp    
 ------- -------- --------- --------- -------- ------- ------- -------- --------- ---------
 -19.800  -0.4094   0.23020   0.22662  -0.0205  1.0000  0.0168  -1.3000   0.0000   0.0000   0.0000   0.1689
 -19.700  -0.4065   0.22921   0.22563  -0.0212  1.0000  0.0169  -1.3048   0.0000   0.0000   0.0000   0.1670
 -19.600  -0.4035   0.22822   0.22465  -0.0218  1.0000  0.0169  -1.3097   0.0000   0.0000   0.0000   0.1651
 -19.500  -0.4007   0.22724   0.22367  -0.0224  1.0000  0.0169  -1.3146   0.0000   0.0000   0.0000   0.1632
 -19.400  -0.3978   0.22625   0.22269  -0.0230  1.0000  0.0169  -1.3195   0.0000   0.0000   0.0000   0.1613
 -19.300  -0.3949   0.22526   0.22170  -0.0236  1.0000  0.0170  -1.3244   0.0000   0.0000   0.0000   0.1594
 -19.200  -0.3921   0.22427   0.22071  -0.0242  1.0000  0.0170  -1.3294   0.0000   0.0000   0.0000   0.1575
 -19.100  -0.3893   0.22326   0.21971  -0.0248  1.0000  0.0170  -1.3345   0.0000   0.0000   0.0000   0.1555
 -19.000  -0.3866   0.22223   0.21869  -0.0253  1.0000  0.0170  -1.3396   0.0000   0.0000   0.0000   0.1536
 -18.900  -0.3839   0.22117   0.21763  -0.0259  1.0000  0.0170  -1.3450   0.0000   0.0000   0.0000   0.1516
 -18.800  -0.3812   0.22008   0.21655  -0.0265  1.0000  0.0171  -1.3505   0.0000   0.0000   0.0000   0.1497
 -18.700  -0.3786   0.21897   0.21544  -0.0270  1.0000  0.0171  -1.3561   0.0000   0.0000   0.0000   0.1478
 -18.600  -0.3760   0.21784   0.21432  -0.0276  1.0000  0.0171  -1.3619   0.0000   0.0000   0.0000   0.1458
 -18.500  -0.3734   0.21672   0.21320  -0.0281  1.0000  0.0171  -1.3677   0.0000   0.0000   0.0000   0.1438
 -18.400  -0.3708   0.21559   0.21208  -0.0287  1.0000  0.0171  -1.3737   0.0000   0.0000   0.0000   0.1419
 -18.300  -0.3683   0.21445   0.21094  -0.0292  1.0000  0.0171  -1.3798   0.0000   0.0000   0.0000   0.1399
 -18.200  -0.3658   0.21331   0.20981  -0.0297  1.0000  0.0171  -1.3860   0.0000   0.0000   0.0000   0.1379
 -18.100  -0.3633   0.21217   0.20867  -0.0302  1.0000  0.0172  -1.3923   0.0000   0.0000   0.0000   0.1359
 -18.000  -0.3608   0.21102   0.20752  -0.0308  1.0000  0.0172  -1.3988   0.0000   0.0000   0.0000   0.1339
 -17.900  -0.3584   0.20986   0.20637  -0.0313  1.0000  0.0172  -1.4054   0.0000   0.0000   0.0000   0.1319
 -17.800  -0.3560   0.20870   0.20522  -0.0318  1.0000  0.0172  -1.4121   0.0000   0.0000   0.0000   0.1299
 -17.700  -0.3535   0.20752   0.20405  -0.0322  1.0000  0.0172  -1.4180   0.0000   0.0000   0.0000   0.1279
 -17.600  -0.3510   0.20634   0.20287  -0.0327  1.0000  0.0172  -1.4233   0.0000   0.0000   0.0000   0.1259
 -17.500  -0.3486   0.20514   0.20168  -0.0332  1.0000  0.0172  -1.4287   0.0000   0.0000   0.0000   0.1240
 -17.400  -0.3461   0.20395   0.20049  -0.0336  1.0000  0.0172  -1.4342   0.0000   0.0000   0.0000   0.1220
 -17.300  -0.3437   0.20275   0.19930  -0.0341  1.0000  0.0172  -1.4399   0.0000   0.0000   0.0000   0.1200
 -17.200  -0.3413   0.20154   0.19810  -0.0345  1.0000  0.0172  -1.4457   0.0000   0.0000   0.0000   0.1180
 -17.100  -0.3389   0.20033   0.19689  -0.0350  1.0000  0.0172  -1.4514   0.0000   0.0000   0.0000   0.1159
 -17.000  -0.3365   0.19911   0.19568  -0.0354  1.0000  0.0172  -1.4570   0.0000   0.0000   0.0000   0.1139
 -16.900  -0.3341   0.19788   0.19446  -0.0358  1.0000  0.0173  -1.4626   0.0000   0.0000   0.0000   0.1119
 -16.800  -0.3317   0.19665   0.19323  -0.0362  1.0000  0.0173  -1.4682   0.0000   0.0000   0.0000   0.1099
 -16.700  -0.3294   0.19541   0.19200  -0.0366  1.0000  0.0173  -1.4739   0.0000   0.0000   0.0000   0.1079
 -16.600  -0.3270   0.19417   0.19077  -0.0370  1.0000  0.0173  -1.4797   0.0000   0.0000   0.0000   0.1059
 -16.500  -0.3247   0.19293   0.18953  -0.0374  1.0000  0.0173  -1.4856   0.0000   0.0000   0.0000   0.1039
 -16.400  -0.3224   0.19168   0.18829  -0.0377  1.0000  0.0173  -1.4917   0.0000   0.0000   0.0000   0.1019
 -16.300  -0.3201   0.19043   0.18704  -0.0381  1.0000  0.0173  -1.4980   0.0000   0.0000   0.0000   0.0999
 -16.200  -0.3179   0.18918   0.18580  -0.0385  1.0000  0.0173  -1.5044   0.0000   0.0000   0.0000   0.0979
 -16.100  -0.3156   0.18792   0.18455  -0.0388  1.0000  0.0173  -1.5110   0.0000   0.0000   0.0000   0.0959
 -16.000  -0.3134   0.18666   0.18329  -0.0392  1.0000  0.0173  -1.5178   0.0000   0.0000   0.0000   0.0939
 -15.900  -0.3112   0.18540   0.18204  -0.0395  1.0000  0.0173  -1.5247   0.0000   0.0000   0.0000   0.0919
 -15.800  -0.3091   0.18413   0.18078  -0.0399  1.0000  0.0173  -1.5317   0.0000   0.0000   0.0000   0.0899
 -15.700  -0.3069   0.18286   0.17952  -0.0402  1.0000  0.0173  -1.5389   0.0000   0.0000   0.0000   0.0880
 -15.600  -0.3048   0.18159   0.17826  -0.0405  1.0000  0.0173  -1.5464   0.0000   0.0000   0.0000   0.0860
 -15.500  -0.3027   0.18031   0.17696  -0.0408  1.0000  0.0173  -1.5535   0.0000   0.0000   0.0000   0.0841
 -15.400  -0.3007   0.17904   0.17569  -0.0411  1.0000  0.0173  -1.5615   0.0000   0.0000   0.0000   0.0822
 -15.300  -0.2986   0.17776   0.17442  -0.0414  1.0000  0.0173  -1.5697   0.0000   0.0000   0.0000   0.0802
 -15.200  -0.2966   0.17649   0.17316  -0.0417  1.0000  0.0173  -1.5782   0.0000   0.0000   0.0000   0.0784
 -15.100  -0.2947   0.17521   0.17189  -0.0419  1.0000  0.0173  -1.5870   0.0000   0.0000   0.0000   0.0765
 -15.000  -0.2928   0.17394   0.17062  -0.0422  1.0000  0.0173  -1.5961   0.0000   0.0000   0.0000   0.0746
 -14.900  -0.2909   0.17266   0.16936  -0.0425  1.0000  0.0173  -1.6057   0.0000   0.0000   0.0000   0.0728
 -14.800  -0.2891   0.17139   0.16809  -0.0427  1.0000  0.0173  -1.6155   0.0000   0.0000   0.0000   0.0710
 -14.700  -0.2873   0.17012   0.16683  -0.0430  1.0000  0.0174  -1.6259   0.0000   0.0000   0.0000   0.0693
 -14.600  -0.2856   0.16884   0.16556  -0.0432  1.0000  0.0174  -1.6366   0.0000   0.0000   0.0000   0.0676
 -14.500  -0.2839   0.16757   0.16430  -0.0434  1.0000  0.0174  -1.6478   0.0000   0.0000   0.0000   0.0659
 -14.400  -0.2822   0.16630   0.16304  -0.0436  1.0000  0.0174  -1.6594   0.0000   0.0000   0.0000   0.0643
 -14.300  -0.2806   0.16503   0.16178  -0.0438  1.0000  0.0174  -1.6716   0.0000   0.0000   0.0000   0.0628
 -14.200  -0.2791   0.16377   0.16052  -0.0440  1.0000  0.0174  -1.6844   0.0000   0.0000   0.0000   0.0613
 -14.100  -0.2777   0.16250   0.15927  -0.0442  1.0000  0.0174  -1.6978   0.0000   0.0000   0.0000   0.0598
 -14.000  -0.2763   0.16124   0.15801  -0.0444  1.0000  0.0174  -1.7118   0.0000   0.0000   0.0000   0.0585
 -13.900  -0.2796   0.15677   0.15358  -0.0444  1.0000  0.0180  -1.8277   0.0000   0.0000   0.0000   0.0603
 -13.800  -0.2764   0.15552   0.15234  -0.0441  1.0000  0.0182  -1.8000   0.0000   0.0000   0.0000   0.0595
 -13.700  -0.2737   0.15443   0.15126  -0.0439  1.0000  0.0183  -1.7752   0.0000   0.0000   0.0000   0.0585
 -13.600  -0.2712   0.15341   0.15024  -0.0438  1.0000  0.0185  -1.7527   0.0000   0.0000   0.0000   0.0577
 -13.500  -0.2689   0.15243   0.14927  -0.0436  1.0000  0.0186  -1.7325   0.0000   0.0000   0.0000   0.0568
 -13.400  -0.2668   0.15147   0.14833  -0.0435  1.0000  0.0188  -1.7143   0.0000   0.0000   0.0000   0.0561
 -13.300  -0.2649   0.15053   0.14741  -0.0434  1.0000  0.0190  -1.6984   0.0000   0.0000   0.0000   0.0554
 -13.200  -0.2632   0.14961   0.14649  -0.0433  1.0000  0.0192  -1.6844   0.0000   0.0000   0.0000   0.0548
 -13.100  -0.2616   0.14869   0.14559  -0.0432  1.0000  0.0194  -1.6724   0.0000   0.0000   0.0000   0.0544
 -13.000  -0.2603   0.14779   0.14470  -0.0431  1.0000  0.0196  -1.6621   0.0000   0.0000   0.0000   0.0541
 -12.900  -0.2591   0.14689   0.14381  -0.0429  1.0000  0.0199  -1.6537   0.0000   0.0000   0.0000   0.0541
 -12.800  -0.2581   0.14600   0.14294  -0.0427  1.0000  0.0202  -1.6472   0.0000   0.0000   0.0000   0.0543
 -12.700  -0.2573   0.14512   0.14208  -0.0425  1.0000  0.0205  -1.6426   0.0000   0.0000   0.0000   0.0548
 -12.600  -0.2569   0.14426   0.14124  -0.0423  1.0000  0.0208  -1.6400   0.0000   0.0000   0.0000   0.0558
 -12.500  -0.2568   0.14343   0.14042  -0.0420  1.0000  0.0212  -1.6395   0.0000   0.0000   0.0000   0.0572
 -12.400  -0.2572   0.14262   0.13963  -0.0416  1.0000  0.0216  -1.6410   0.0000   0.0000   0.0000   0.0593
 -12.300  -0.2581   0.14187   0.13891  -0.0411  1.0000  0.0220  -1.6448   0.0000   0.0000   0.0000   0.0622
 -12.200  -0.2598   0.14120   0.13826  -0.0404  1.0000  0.0225  -1.6509   0.0000   0.0000   0.0000   0.0663
 -12.100  -0.2627   0.14067   0.13775  -0.0395  1.0000  0.0229  -1.6596   0.0000   0.0000   0.0000   0.0719
 -11.900  -0.2554   0.13745   0.13454  -0.0424  0.9990  0.0250  -1.7136   0.0000   0.0000   0.0000   0.0559
 -11.800  -0.2536   0.13557   0.13267  -0.0470  0.9979  0.0263  -1.8571   0.0000   0.0000   0.0000   0.0363
 -11.700  -0.2477   0.13390   0.13100  -0.0493  0.9970  0.0265  -1.8852   0.0000   0.0000   0.0000   0.0220
 -11.600  -0.2416   0.13215   0.12925  -0.0513  0.9963  0.0266  -1.9011   0.0000   0.0000   0.0000   0.0080
 -11.500  -0.2357   0.13041   0.12750  -0.0534  0.9955  0.0267  -1.9167   0.0000   0.0000   0.0000  -0.0066
 -11.400  -0.2300   0.12862   0.12572  -0.0554  0.9944  0.0268  -1.9320   0.0000   0.0000   0.0000  -0.0214
 -11.300  -0.2244   0.12681   0.12390  -0.0573  0.9934  0.0269  -1.9464   0.0000   0.0000   0.0000  -0.0369
 -11.200  -0.2275   0.12240   0.11951  -0.0579  0.9929  0.0277  -2.0067   0.0000   0.0000   0.0000  -0.0356
 -11.100  -0.2178   0.12143   0.11854  -0.0581  0.9923  0.0282  -1.9046   0.0000   0.0000   0.0000  -0.0487
 -11.000  -0.2077   0.12045   0.11756  -0.0585  0.9916  0.0287  -1.8151   0.0000   0.0000   0.0000  -0.0652
 -10.900  -0.1992   0.11930   0.11640  -0.0595  0.9909  0.0292  -1.7568   0.0000   0.0000   0.0000  -0.0834
 -10.800  -0.1915   0.11800   0.11510  -0.0608  0.9902  0.0296  -1.7164   0.0000   0.0000   0.0000  -0.1030
 -10.700  -0.1848   0.11660   0.11370  -0.0620  0.9886  0.0300  -1.6880   0.0000   0.0000   0.0000  -0.1223
 -10.600  -0.1782   0.11513   0.11224  -0.0634  0.9872  0.0304  -1.6658   0.0000   0.0000   0.0000  -0.1438
 -10.500  -0.1715   0.11364   0.11074  -0.0649  0.9860  0.0309  -1.6464   0.0000   0.0000   0.0000  -0.1677
 -10.400  -0.1648   0.11210   0.10920  -0.0666  0.9849  0.0314  -1.6298   0.0000   0.0000   0.0000  -0.1942
 -10.300  -0.1580   0.11053   0.10763  -0.0682  0.9839  0.0320  -1.6158   0.0000   0.0000   0.0000  -0.2236
 -10.200  -0.1513   0.10892   0.10602  -0.0700  0.9831  0.0326  -1.6047   0.0000   0.0000   0.0000  -0.2563
 -10.100  -0.1462   0.10739   0.10449  -0.0714  0.9804  0.0333  -1.5985   0.0000   0.0000   0.0000  -0.2828
 -10.000  -0.1405   0.10578   0.10288  -0.0731  0.9783  0.0341  -1.5961   0.0000   0.0000   0.0000  -0.3159
  -9.900  -0.1348   0.10407   0.10118  -0.0751  0.9767  0.0352  -1.6029   0.0000   0.0000   0.0000  -0.3552
  -9.800  -0.1296   0.10214   0.09925  -0.0787  0.9750  0.0369  -1.6566   0.0000   0.0000   0.0000  -0.4068
  -9.700  -0.1234   0.10028   0.09739  -0.0822  0.9736  0.0376  -1.7014   0.0000   0.0000   0.0000  -0.4675
  -9.600  -0.1194   0.09873   0.09585  -0.0836  0.9695  0.0378  -1.7139   0.0000   0.0000   0.0000  -0.5033
  -9.500  -0.1135   0.09698   0.09410  -0.0855  0.9670  0.0379  -1.7208   0.0000   0.0000   0.0000  -0.5595
  -9.400  -0.1071   0.09512   0.09223  -0.0876  0.9652  0.0380  -1.7275   0.0000   0.0000   0.0000  -0.6268
  -9.300  -0.1004   0.09318   0.09029  -0.0897  0.9637  0.0380  -1.7346   0.0000   0.0000   0.0000  -0.7055
  -9.200  -0.0937   0.09118   0.08826  -0.0919  0.9625  0.0380  -1.7431   0.0000   0.0000   0.0000  -0.7977
  -9.100  -0.0895   0.08942   0.08650  -0.0933  0.9588  0.0381  -1.7518   0.0000   0.0000   0.0000  -0.8620
  -9.000  -0.0846   0.08753   0.08462  -0.0950  0.9557  0.0381  -1.7613   0.0000   0.0000   0.0000  -0.9452
  -8.900  -0.0789   0.08551   0.08259  -0.0969  0.9535  0.0381  -1.7716   0.0000   0.0000   0.0000  -1.0560
  -8.800  -0.0726   0.08338   0.08046  -0.0991  0.9517  0.0381  -1.7961   0.0000   0.0000   0.0000  -1.1980
  -8.700  -0.0659   0.08113   0.07820  -0.1015  0.9502  0.0381  -1.8238   0.0000   0.0000   0.0000  -1.3819
  -8.600  -0.0588   0.07876   0.07583  -0.1041  0.9489  0.0380  -1.8541   0.0000   0.0000   0.0000  -1.6215
  -8.500  -0.0882   0.06728   0.06438  -0.1091  0.9423  0.0234  -2.5137   0.0000   0.0000   0.0000  -1.0580
  -8.400  -0.0898   0.06209   0.05919  -0.1150  0.9382  0.0229  -2.7263   0.0000   0.0000   0.0000  -1.1004
  -8.300  -0.1249   0.02801   0.02381  -0.1688  0.9169  0.0212  -4.3502   0.0000   0.0000   0.0000  -1.1537
  -8.200  -0.1103   0.02650   0.02211  -0.1717  0.9141  0.0218  -4.3215   0.0000   0.0000   0.0000  -1.3646
  -8.100  -0.1005   0.02544   0.02090  -0.1730  0.9094  0.0222  -4.2917   0.0000   0.0000   0.0000  -1.5337
  -8.000  -0.0870   0.02435   0.01964  -0.1748  0.9062  0.0227  -4.2462   0.0000   0.0000   0.0000  -1.8319
  -7.900  -0.0721   0.02334   0.01847  -0.1767  0.9036  0.0231  -4.1903   0.0000   0.0000   0.0000  -2.2873
  -7.800  -0.0562   0.02240   0.01737  -0.1786  0.9014  0.0234  -4.1255   0.0000   0.0000   0.0000  -3.0378
  -7.700  -0.0398   0.02154   0.01635  -0.1805  0.8994  0.0236  -4.0542   0.0000   0.0000   0.0000  -4.4390
  -7.600  -0.0231   0.02092   0.01560  -0.1822  0.8976  0.0240  -3.9664   0.0000   0.0000   0.0000  -7.8995
  -7.500  -0.0106   0.02038   0.01496  -0.1829  0.8944  0.0242  -3.8950   0.0000   0.0000   0.0000  -17.6154
  -7.400   0.0000   0.01978   0.01425  -0.1833  0.8906  0.0241  -3.8375   0.0000   0.0000   0.0000  11818.5822
  -7.300   0.0123   0.01918   0.01354  -0.1840  0.8872  0.0240  -3.7719   0.0000   0.0000   0.0000  15.6826
  -7.200   0.0256   0.01864   0.01288  -0.1848  0.8843  0.0239  -3.6994   0.0000   0.0000   0.0000   7.7063
  -7.100   0.0398   0.01813   0.01227  -0.1857  0.8818  0.0239  -3.6209   0.0000   0.0000   0.0000   5.0637
  -7.000   0.0545   0.01767   0.01171  -0.1868  0.8794  0.0238  -3.5381   0.0000   0.0000   0.0000   3.7798
  -6.900   0.0696   0.01725   0.01116  -0.1878  0.8772  0.0238  -3.4492   0.0000   0.0000   0.0000   3.0276
  -6.800   0.0823   0.01692   0.01076  -0.1883  0.8744  0.0238  -3.3707   0.0000   0.0000   0.0000   2.6051
  -6.700   0.0922   0.01665   0.01044  -0.1883  0.8709  0.0238  -3.3007   0.0000   0.0000   0.0000   2.3497
  -6.600   0.1034   0.01638   0.01012  -0.1885  0.8675  0.0239  -3.2258   0.0000   0.0000   0.0000   2.1239
  -6.500   0.1153   0.01612   0.00980  -0.1888  0.8644  0.0239  -3.1475   0.0000   0.0000   0.0000   1.9320
  -6.400   0.1279   0.01587   0.00950  -0.1892  0.8615  0.0240  -3.0665   0.0000   0.0000   0.0000   1.7692
  -6.300   0.1413   0.01564   0.00921  -0.1898  0.8588  0.0241  -2.9825   0.0000   0.0000   0.0000   1.6291
  -6.200   0.1551   0.01543   0.00894  -0.1905  0.8563  0.0242  -2.8967   0.0000   0.0000   0.0000   1.5101
  -6.100   0.1692   0.01525   0.00870  -0.1912  0.8539  0.0244  -2.8096   0.0000   0.0000   0.0000   1.4086
  -6.000   0.1801   0.01510   0.00852  -0.1913  0.8511  0.0245  -2.7340   0.0000   0.0000   0.0000   1.3387
  -5.900   0.1908   0.01496   0.00836  -0.1913  0.8480  0.0247  -2.6588   0.0000   0.0000   0.0000   1.2770
  -5.800   0.2022   0.01483   0.00820  -0.1914  0.8450  0.0249  -2.5815   0.0000   0.0000   0.0000   1.2197
  -5.700   0.2139   0.01470   0.00804  -0.1916  0.8420  0.0251  -2.5030   0.0000   0.0000   0.0000   1.1670
  -5.600   0.2260   0.01459   0.00789  -0.1919  0.8393  0.0254  -2.4233   0.0000   0.0000   0.0000   1.1187
  -5.500   0.2386   0.01448   0.00774  -0.1923  0.8367  0.0256  -2.3420   0.0000   0.0000   0.0000   1.0740
  -5.400   0.2516   0.01438   0.00761  -0.1927  0.8342  0.0259  -2.2597   0.0000   0.0000   0.0000   1.0329
  -5.300   0.2648   0.01431   0.00748  -0.1932  0.8318  0.0262  -2.1767   0.0000   0.0000   0.0000   0.9952
  -5.200   0.2781   0.01425   0.00738  -0.1937  0.8294  0.0264  -2.0939   0.0000   0.0000   0.0000   0.9611
  -5.100   0.2886   0.01417   0.00730  -0.1936  0.8269  0.0266  -2.0221   0.0000   0.0000   0.0000   0.9348
  -5.000   0.2994   0.01410   0.00722  -0.1936  0.8243  0.0268  -1.9727   0.0000   0.0000   0.0000   0.9097
  -4.900   0.3109   0.01397   0.00709  -0.1938  0.8217  0.0270  -1.9267   0.0000   0.0000   0.0000   0.8856
  -4.800   0.3235   0.01369   0.00678  -0.1943  0.8192  0.0273  -1.8894   0.0000   0.0000   0.0000   0.8622
  -4.700   0.3363   0.01345   0.00651  -0.1948  0.8167  0.0277  -1.8484   0.0000   0.0000   0.0000   0.8403
  -4.600   0.3492   0.01325   0.00629  -0.1953  0.8142  0.0281  -1.8041   0.0000   0.0000   0.0000   0.8198
  -4.500   0.3622   0.01310   0.00611  -0.1958  0.8117  0.0287  -1.7548   0.0000   0.0000   0.0000   0.8005
  -4.400   0.3746   0.01306   0.00606  -0.1962  0.8093  0.0301  -1.6892   0.0000   0.0000   0.0000   0.7829
  -4.300   0.3863   0.01317   0.00616  -0.1963  0.8069  0.0324  -1.6112   0.0000   0.0000   0.0000   0.7668
  -4.200   0.3988   0.01323   0.00620  -0.1966  0.8045  0.0340  -1.5481   0.0000   0.0000   0.0000   0.7511
  -4.100   0.4093   0.01323   0.00621  -0.1965  0.8021  0.0353  -1.4956   0.0000   0.0000   0.0000   0.7377
  -4.000   0.4201   0.01320   0.00618  -0.1964  0.7994  0.0362  -1.4474   0.0000   0.0000   0.0000   0.7249
  -3.900   0.4315   0.01312   0.00609  -0.1965  0.7965  0.0367  -1.4046   0.0000   0.0000   0.0000   0.7123
  -3.800   0.4437   0.01297   0.00592  -0.1968  0.7935  0.0369  -1.3679   0.0000   0.0000   0.0000   0.7001
  -3.700   0.4561   0.01282   0.00574  -0.1971  0.7905  0.0370  -1.3317   0.0000   0.0000   0.0000   0.6883
  -3.600   0.4688   0.01268   0.00556  -0.1974  0.7874  0.0371  -1.2950   0.0000   0.0000   0.0000   0.6770
  -3.500   0.4819   0.01255   0.00538  -0.1979  0.7843  0.0372  -1.2573   0.0000   0.0000   0.0000   0.6660
  -3.400   0.4954   0.01245   0.00521  -0.1983  0.7810  0.0373  -1.2190   0.0000   0.0000   0.0000   0.6555
  -3.300   0.5090   0.01238   0.00507  -0.1989  0.7775  0.0375  -1.1801   0.0000   0.0000   0.0000   0.6455
  -3.200   0.5200   0.01226   0.00494  -0.1989  0.7742  0.0377  -1.1454   0.0000   0.0000   0.0000   0.6369
  -3.100   0.5314   0.01216   0.00482  -0.1989  0.7705  0.0378  -1.1099   0.0000   0.0000   0.0000   0.6286
  -3.000   0.5430   0.01207   0.00470  -0.1990  0.7666  0.0381  -1.0739   0.0000   0.0000   0.0000   0.6204
  -2.900   0.5548   0.01199   0.00458  -0.1991  0.7627  0.0383  -1.0373   0.0000   0.0000   0.0000   0.6126
  -2.800   0.5672   0.01190   0.00445  -0.1993  0.7588  0.0387  -1.0023   0.0000   0.0000   0.0000   0.6049
  -2.700   0.5801   0.01180   0.00426  -0.1997  0.7551  0.0397  -0.9711   0.0000   0.0000   0.0000   0.5973
  -2.600   0.5933   0.01174   0.00410  -0.2000  0.7513  0.0412  -0.9393   0.0000   0.0000   0.0000   0.5901
  -2.500   0.6054   0.01167   0.00399  -0.2002  0.7479  0.0431  -0.9079   0.0000   0.0000   0.0000   0.5834
  -2.400   0.6169   0.01158   0.00391  -0.2003  0.7444  0.0455  -0.8753   0.0000   0.0000   0.0000   0.5771
  -2.300   0.6289   0.01149   0.00379  -0.2004  0.7407  0.0487  -0.8802   0.0000   0.0000   0.0000   0.5710
  -2.200   0.6409   0.01141   0.00372  -0.2006  0.7371  0.0514  -0.8889   0.0000   0.0000   0.0000   0.5651
  -2.100   0.6529   0.01136   0.00364  -0.2008  0.7335  0.0622  -0.8976   0.0000   0.0000   0.0000   0.5593
  -2.000   0.6649   0.01133   0.00357  -0.2009  0.7301  0.0705  -0.9064   0.0000   0.0000   0.0000   0.5538
  -1.900   0.6773   0.01128   0.00349  -0.2012  0.7268  0.0782  -0.9154   0.0000   0.0000   0.0000   0.5484
  -1.800   0.6897   0.01126   0.00344  -0.2014  0.7236  0.0833  -0.9244   0.0000   0.0000   0.0000   0.5433
  -1.700   0.7019   0.01126   0.00341  -0.2016  0.7204  0.0976  -0.9333   0.0000   0.0000   0.0000   0.5383
  -1.600   0.7129   0.01124   0.00339  -0.2016  0.7177  0.1030  -0.9414   0.0000   0.0000   0.0000   0.5336
  -1.500   0.7244   0.01120   0.00337  -0.2017  0.7147  0.1099  -0.9509   0.0000   0.0000   0.0000   0.5291
  -1.400   0.7362   0.01115   0.00335  -0.2018  0.7117  0.1189  -0.9611   0.0000   0.0000   0.0000   0.5247
  -1.300   0.7483   0.01109   0.00333  -0.2021  0.7087  0.1397  -0.9714   0.0000   0.0000   0.0000   0.5204
  -1.200   0.7598   0.01109   0.00332  -0.2021  0.7058  0.1452  -0.9814   0.0000   0.0000   0.0000   0.5162
  -1.100   0.7719   0.01106   0.00330  -0.2023  0.7029  0.1573  -0.9918   0.0000   0.0000   0.0000   0.5121
  -1.000   0.7844   0.01100   0.00328  -0.2027  0.7001  0.1788  -1.0024   0.0000   0.0000   0.0000   0.5082
  -0.900   0.7962   0.01099   0.00327  -0.2028  0.6973  0.1952  -1.0127   0.0000   0.0000   0.0000   0.5044
  -0.800   0.8089   0.01094   0.00326  -0.2032  0.6946  0.2163  -1.0235   0.0000   0.0000   0.0000   0.5007
  -0.700   0.8216   0.01090   0.00326  -0.2036  0.6919  0.2478  -1.0343   0.0000   0.0000   0.0000   0.4972
  -0.600   0.8342   0.01082   0.00328  -0.2041  0.6895  0.2770  -1.0450   0.0000   0.0000   0.0000   0.4938
  -0.500   0.8466   0.01075   0.00331  -0.2044  0.6869  0.3124  -1.0556   0.0000   0.0000   0.0000   0.4905
  -0.400   0.8590   0.01069   0.00336  -0.2048  0.6841  0.3431  -1.0663   0.0000   0.0000   0.0000   0.4872
  -0.300   0.8708   0.01067   0.00340  -0.2050  0.6812  0.3703  -1.0766   0.0000   0.0000   0.0000   0.4840
  -0.200   0.8827   0.01064   0.00345  -0.2051  0.6782  0.3917  -1.0871   0.0000   0.0000   0.0000   0.4809
  -0.100   0.8944   0.01064   0.00349  -0.2053  0.6752  0.4103  -1.0974   0.0000   0.0000   0.0000   0.4779
   0.000   0.9060   0.01065   0.00353  -0.2053  0.6721  0.4284  -1.1076   0.0000   0.0000   0.0000   0.4749


