xflr5 v6.59

 Calculated polar for: WORTMANN FX 63-137 AIRFOIL

 1 1 Reynolds number fixed          Mach number fixed         

 xtrf =   1.000 (top)        1.000 (bottom)
 Mach =   0.000     Re =     2.900 e 6     Ncrit =   9.000

  alpha     CL        CD       CDp       Cm    Top Xtr Bot Xtr   Cpmin    Chinge    XCp    
 ------- -------- --------- --------- -------- ------- ------- -------- --------- ---------
 -12.500  -0.1033   0.10299   0.10037  -0.1107  0.6720  0.0085  -2.9760   0.0000   0.0000   0.0000  -0.9176
 -11.100  -0.0489   0.09142   0.08861  -0.1170  0.6125  0.0121  -2.3273   0.0000   0.0000   0.0000  -2.3176
 -11.000  -0.0451   0.09063   0.08780  -0.1174  0.6082  0.0123  -2.2871   0.0000   0.0000   0.0000  -2.5392
 -10.900  -0.0413   0.08986   0.08700  -0.1178  0.6033  0.0125  -2.2458   0.0000   0.0000   0.0000  -2.8073
 -10.800  -0.0372   0.08908   0.08622  -0.1182  0.5991  0.0127  -2.2033   0.0000   0.0000   0.0000  -3.1469
 -10.700  -0.0330   0.08830   0.08543  -0.1186  0.5969  0.0130  -2.1593   0.0000   0.0000   0.0000  -3.5950
 -10.600  -0.0286   0.08752   0.08466  -0.1190  0.5957  0.0134  -2.1139   0.0000   0.0000   0.0000  -4.2049
 -10.500  -0.0240   0.08676   0.08389  -0.1195  0.5942  0.0139  -2.0680   0.0000   0.0000   0.0000  -5.0674
 -10.400  -0.0193   0.08599   0.08312  -0.1200  0.5922  0.0146  -2.0239   0.0000   0.0000   0.0000  -6.3729
 -10.300  -0.0146   0.08516   0.08229  -0.1204  0.5897  0.0152  -1.9868   0.0000   0.0000   0.0000  -8.5102
 -10.200  -0.0100   0.08426   0.08139  -0.1209  0.5890  0.0157  -1.9568   0.0000   0.0000   0.0000  -12.6173
 -10.100  -0.0062   0.08353   0.08059  -0.1211  0.5717  0.0161  -1.9270   0.0000   0.0000   0.0000  -20.6934
 -10.000  -0.0013   0.08285   0.07987  -0.1214  0.5622  0.0163  -1.8886   0.0000   0.0000   0.0000  -98.2821
  -9.700  -0.2214   0.01014   0.00512  -0.1945  0.6697  0.0066  -6.5152   0.0000   0.0000   0.0000  -0.6669
  -9.600  -0.2095   0.01002   0.00497  -0.1948  0.6664  0.0065  -6.3775   0.0000   0.0000   0.0000  -0.7199
  -9.500  -0.1974   0.00991   0.00483  -0.1951  0.6630  0.0065  -6.2493   0.0000   0.0000   0.0000  -0.7797
  -9.400  -0.1853   0.00979   0.00468  -0.1954  0.6605  0.0065  -6.1328   0.0000   0.0000   0.0000  -0.8480
  -9.300  -0.1732   0.00967   0.00453  -0.1957  0.6581  0.0064  -6.0177   0.0000   0.0000   0.0000  -0.9258
  -9.200  -0.1613   0.00957   0.00440  -0.1959  0.6521  0.0064  -5.9034   0.0000   0.0000   0.0000  -1.0132
  -9.100  -0.1509   0.00956   0.00429  -0.1958  0.6292  0.0064  -5.7972   0.0000   0.0000   0.0000  -1.0995
  -9.000  -0.1395   0.00949   0.00416  -0.1960  0.6174  0.0063  -5.6867   0.0000   0.0000   0.0000  -1.2100
  -8.900  -0.1283   0.00944   0.00405  -0.1961  0.6042  0.0063  -5.5781   0.0000   0.0000   0.0000  -1.3372
  -8.800  -0.1164   0.00935   0.00393  -0.1964  0.5964  0.0063  -5.4664   0.0000   0.0000   0.0000  -1.5010
  -8.700  -0.1042   0.00926   0.00382  -0.1966  0.5934  0.0063  -5.3545   0.0000   0.0000   0.0000  -1.7063
  -8.600  -0.0922   0.00918   0.00371  -0.1968  0.5893  0.0062  -5.2438   0.0000   0.0000   0.0000  -1.9625
  -8.500  -0.0801   0.00910   0.00361  -0.1971  0.5871  0.0062  -5.1335   0.0000   0.0000   0.0000  -2.2993
  -8.400  -0.0696   0.00913   0.00355  -0.1970  0.5642  0.0062  -5.0319   0.0000   0.0000   0.0000  -2.6801
  -8.300  -0.0578   0.00908   0.00346  -0.1972  0.5582  0.0062  -4.9248   0.0000   0.0000   0.0000  -3.2792
  -8.200  -0.0461   0.00904   0.00338  -0.1973  0.5525  0.0061  -4.8187   0.0000   0.0000   0.0000  -4.1810
  -8.100  -0.0344   0.00900   0.00331  -0.1975  0.5467  0.0061  -4.7138   0.0000   0.0000   0.0000  -5.6878
  -8.000  -0.0227   0.00897   0.00323  -0.1976  0.5404  0.0061  -4.6096   0.0000   0.0000   0.0000  -8.7600
  -7.900  -0.0108   0.00892   0.00316  -0.1978  0.5342  0.0061  -4.5054   0.0000   0.0000   0.0000  -18.7139
  -7.800   0.0013   0.00886   0.00308  -0.1980  0.5317  0.0061  -4.4011   0.0000   0.0000   0.0000  154.6604
  -7.700   0.0134   0.00881   0.00301  -0.1982  0.5301  0.0060  -4.2976   0.0000   0.0000   0.0000  15.4743
  -7.600   0.0255   0.00876   0.00295  -0.1984  0.5278  0.0060  -4.2077   0.0000   0.0000   0.0000   8.2751
  -7.500   0.0375   0.00871   0.00288  -0.1986  0.5250  0.0060  -4.1315   0.0000   0.0000   0.0000   5.7064
  -7.400   0.0489   0.00871   0.00284  -0.1987  0.5138  0.0060  -4.0580   0.0000   0.0000   0.0000   4.4367
  -7.300   0.0598   0.00875   0.00280  -0.1987  0.4971  0.0059  -3.9864   0.0000   0.0000   0.0000   3.6703
  -7.200   0.0715   0.00873   0.00275  -0.1988  0.4909  0.0059  -3.9126   0.0000   0.0000   0.0000   3.1114
  -7.100   0.0831   0.00872   0.00271  -0.1989  0.4848  0.0059  -3.8395   0.0000   0.0000   0.0000   2.7119
  -7.000   0.0947   0.00871   0.00267  -0.1990  0.4785  0.0059  -3.7667   0.0000   0.0000   0.0000   2.4112
  -6.900   0.1066   0.00868   0.00261  -0.1992  0.4758  0.0060  -3.6924   0.0000   0.0000   0.0000   2.1698
  -6.800   0.1184   0.00866   0.00257  -0.1993  0.4696  0.0060  -3.6194   0.0000   0.0000   0.0000   1.9788
  -6.700   0.1304   0.00863   0.00252  -0.1995  0.4666  0.0060  -3.5460   0.0000   0.0000   0.0000   1.8205
  -6.600   0.1424   0.00859   0.00248  -0.1996  0.4651  0.0060  -3.4729   0.0000   0.0000   0.0000   1.6886
  -6.500   0.1544   0.00856   0.00244  -0.1998  0.4630  0.0060  -3.4003   0.0000   0.0000   0.0000   1.5775
  -6.400   0.1664   0.00853   0.00240  -0.2000  0.4608  0.0060  -3.3281   0.0000   0.0000   0.0000   1.4825
  -6.300   0.1778   0.00855   0.00238  -0.2000  0.4508  0.0060  -3.2581   0.0000   0.0000   0.0000   1.4033
  -6.200   0.1885   0.00862   0.00238  -0.2000  0.4329  0.0059  -3.1909   0.0000   0.0000   0.0000   1.3370
  -6.100   0.2001   0.00862   0.00235  -0.2001  0.4274  0.0059  -3.1209   0.0000   0.0000   0.0000   1.2738
  -6.000   0.2117   0.00862   0.00233  -0.2002  0.4222  0.0059  -3.0512   0.0000   0.0000   0.0000   1.2177
  -5.900   0.2232   0.00863   0.00231  -0.2002  0.4168  0.0059  -2.9814   0.0000   0.0000   0.0000   1.1677
  -5.800   0.2348   0.00863   0.00230  -0.2003  0.4112  0.0059  -2.9103   0.0000   0.0000   0.0000   1.1225
  -5.700   0.2465   0.00863   0.00228  -0.2004  0.4051  0.0058  -2.8374   0.0000   0.0000   0.0000   1.0812
  -5.600   0.2583   0.00862   0.00227  -0.2006  0.4020  0.0058  -2.7609   0.0000   0.0000   0.0000   1.0433
  -5.500   0.2700   0.00862   0.00228  -0.2007  0.4008  0.0058  -2.6708   0.0000   0.0000   0.0000   1.0091
  -5.400   0.2808   0.00869   0.00241  -0.2006  0.3994  0.0058  -2.5372   0.0000   0.0000   0.0000   0.9792
  -5.300   0.2926   0.00868   0.00239  -0.2007  0.3974  0.0058  -2.4701   0.0000   0.0000   0.0000   0.9499
  -5.200   0.3046   0.00866   0.00237  -0.2009  0.3961  0.0058  -2.4053   0.0000   0.0000   0.0000   0.9227
  -5.100   0.3154   0.00873   0.00239  -0.2008  0.3803  0.0058  -2.3456   0.0000   0.0000   0.0000   0.8993
  -5.000   0.3265   0.00877   0.00238  -0.2008  0.3681  0.0057  -2.2868   0.0000   0.0000   0.0000   0.8769
  -4.900   0.3381   0.00877   0.00236  -0.2009  0.3636  0.0057  -2.2279   0.0000   0.0000   0.0000   0.8553
  -4.800   0.3498   0.00878   0.00235  -0.2010  0.3592  0.0057  -2.1706   0.0000   0.0000   0.0000   0.8352
  -4.700   0.3614   0.00879   0.00233  -0.2011  0.3548  0.0057  -2.1148   0.0000   0.0000   0.0000   0.8165
  -4.600   0.3731   0.00879   0.00231  -0.2012  0.3502  0.0057  -2.0602   0.0000   0.0000   0.0000   0.7988
  -4.500   0.3848   0.00879   0.00228  -0.2014  0.3450  0.0057  -2.0067   0.0000   0.0000   0.0000   0.7821
  -4.400   0.3967   0.00877   0.00224  -0.2015  0.3402  0.0057  -1.9552   0.0000   0.0000   0.0000   0.7663
  -4.300   0.4087   0.00875   0.00221  -0.2017  0.3386  0.0057  -1.9036   0.0000   0.0000   0.0000   0.7513
  -4.200   0.4207   0.00873   0.00218  -0.2018  0.3378  0.0057  -1.8534   0.0000   0.0000   0.0000   0.7372
  -4.100   0.4328   0.00871   0.00216  -0.2020  0.3367  0.0057  -1.8049   0.0000   0.0000   0.0000   0.7238
  -4.000   0.4448   0.00869   0.00213  -0.2022  0.3354  0.0058  -1.7584   0.0000   0.0000   0.0000   0.7112
  -3.900   0.4567   0.00867   0.00210  -0.2023  0.3335  0.0058  -1.7143   0.0000   0.0000   0.0000   0.6993
  -3.800   0.4688   0.00865   0.00207  -0.2025  0.3330  0.0060  -1.6731   0.0000   0.0000   0.0000   0.6879
  -3.700   0.4809   0.00865   0.00200  -0.2027  0.3097  0.0142  -1.7753   0.0000   0.0000   0.0000   0.6772
  -3.600   0.4922   0.00868   0.00202  -0.2028  0.3047  0.0147  -1.7031   0.0000   0.0000   0.0000   0.6672
  -3.500   0.5035   0.00871   0.00204  -0.2028  0.3006  0.0151  -1.6275   0.0000   0.0000   0.0000   0.6578
  -3.400   0.5146   0.00876   0.00208  -0.2028  0.2966  0.0155  -1.5492   0.0000   0.0000   0.0000   0.6488
  -3.300   0.5256   0.00882   0.00212  -0.2028  0.2924  0.0158  -1.4704   0.0000   0.0000   0.0000   0.6402
  -3.200   0.5368   0.00886   0.00215  -0.2028  0.2881  0.0161  -1.3937   0.0000   0.0000   0.0000   0.6319
  -3.100   0.5481   0.00889   0.00219  -0.2028  0.2832  0.0164  -1.3206   0.0000   0.0000   0.0000   0.6239
  -3.000   0.5596   0.00890   0.00222  -0.2029  0.2794  0.0166  -1.2509   0.0000   0.0000   0.0000   0.6162
  -2.900   0.5712   0.00891   0.00224  -0.2030  0.2782  0.0167  -1.1837   0.0000   0.0000   0.0000   0.6088
  -2.800   0.5827   0.00893   0.00228  -0.2031  0.2774  0.0169  -1.1166   0.0000   0.0000   0.0000   0.6017
  -2.400   0.6301   0.00890   0.00221  -0.2036  0.2733  0.0170  -0.9231   0.0000   0.0000   0.0000   0.5754
  -2.200   0.6505   0.00920   0.00222  -0.2033  0.2270  0.0167  -0.9114   0.0000   0.0000   0.0000   0.5644
  -2.100   0.6619   0.00922   0.00223  -0.2033  0.2214  0.0168  -0.9204   0.0000   0.0000   0.0000   0.5588
  -2.000   0.6735   0.00923   0.00224  -0.2034  0.2198  0.0169  -0.9293   0.0000   0.0000   0.0000   0.5535
  -1.900   0.6850   0.00925   0.00226  -0.2035  0.2176  0.0170  -0.9382   0.0000   0.0000   0.0000   0.5483
  -1.800   0.6967   0.00926   0.00227  -0.2036  0.2170  0.0171  -0.9470   0.0000   0.0000   0.0000   0.5433
  -1.000   0.7867   0.00961   0.00240  -0.2038  0.1788  0.0187  -1.0260   0.0000   0.0000   0.0000   0.5088
  -0.900   0.7982   0.00963   0.00241  -0.2039  0.1760  0.0187  -1.0366   0.0000   0.0000   0.0000   0.5050
  -0.800   0.8097   0.00965   0.00242  -0.2040  0.1732  0.0189  -1.0471   0.0000   0.0000   0.0000   0.5013
  -0.700   0.8213   0.00966   0.00243  -0.2040  0.1710  0.0191  -1.0576   0.0000   0.0000   0.0000   0.4976
  -0.600   0.8329   0.00968   0.00243  -0.2041  0.1701  0.0192  -1.0681   0.0000   0.0000   0.0000   0.4941
  -0.500   0.8444   0.00970   0.00244  -0.2042  0.1696  0.0194  -1.0785   0.0000   0.0000   0.0000   0.4907
  -0.400   0.8559   0.00972   0.00246  -0.2042  0.1686  0.0194  -1.0890   0.0000   0.0000   0.0000   0.4874
  -0.300   0.8673   0.00974   0.00248  -0.2043  0.1671  0.0194  -1.0995   0.0000   0.0000   0.0000   0.4842
  -0.200   0.8786   0.00978   0.00250  -0.2043  0.1652  0.0193  -1.1099   0.0000   0.0000   0.0000   0.4810
  -0.100   0.8886   0.00992   0.00259  -0.2041  0.1505  0.0191  -1.1203   0.0000   0.0000   0.0000   0.4780
   0.000   0.8995   0.00999   0.00264  -0.2041  0.1450  0.0190  -1.1306   0.0000   0.0000   0.0000   0.4750


