xflr5 v6.59

 Calculated polar for: WORTMANN FX 63-137 AIRFOIL

 1 1 Reynolds number fixed          Mach number fixed         

 xtrf =   1.000 (top)        1.000 (bottom)
 Mach =   0.000     Re =     4.200 e 6     Ncrit =   9.000

  alpha     CL        CD       CDp       Cm    Top Xtr Bot Xtr   Cpmin    Chinge    XCp    
 ------- -------- --------- --------- -------- ------- ------- -------- --------- ---------
 -15.000  -0.6405   0.04310   0.04061  -0.1495  0.8295  0.0044  -12.7069   0.0000   0.0000   0.0000  -0.0123
 -14.900  -0.6506   0.04005   0.03750  -0.1524  0.8259  0.0044  -12.8345   0.0000   0.0000   0.0000  -0.0123
 -14.800  -0.6541   0.03820   0.03559  -0.1540  0.8158  0.0044  -12.8498   0.0000   0.0000   0.0000  -0.0130
 -14.700  -0.6589   0.03619   0.03349  -0.1558  0.8042  0.0044  -12.8832   0.0000   0.0000   0.0000  -0.0135
 -14.600  -0.6621   0.03435   0.03160  -0.1575  0.7987  0.0044  -12.8913   0.0000   0.0000   0.0000  -0.0146
 -14.500  -0.6612   0.03319   0.03040  -0.1585  0.7925  0.0044  -12.8350   0.0000   0.0000   0.0000  -0.0161
 -14.400  -0.6615   0.03183   0.02900  -0.1598  0.7864  0.0044  -12.7968   0.0000   0.0000   0.0000  -0.0175
 -14.300  -0.6598   0.03077   0.02790  -0.1607  0.7795  0.0044  -12.7284   0.0000   0.0000   0.0000  -0.0192
 -14.200  -0.6569   0.02984   0.02695  -0.1615  0.7765  0.0044  -12.6426   0.0000   0.0000   0.0000  -0.0213
 -14.100  -0.6545   0.02881   0.02590  -0.1625  0.7742  0.0044  -12.5645   0.0000   0.0000   0.0000  -0.0234
 -14.000  -0.6496   0.02819   0.02527  -0.1630  0.7705  0.0044  -12.4481   0.0000   0.0000   0.0000  -0.0259
 -13.900  -0.6445   0.02764   0.02470  -0.1633  0.7640  0.0044  -12.3270   0.0000   0.0000   0.0000  -0.0282
 -13.800  -0.6394   0.02715   0.02419  -0.1636  0.7560  0.0045  -12.2025   0.0000   0.0000   0.0000  -0.0305
 -13.700  -0.6307   0.02702   0.02407  -0.1636  0.7494  0.0045  -12.0301   0.0000   0.0000   0.0000  -0.0340
 -13.300  -0.1050   0.11823   0.11524  -0.1045  0.5319  0.0044  -2.6456   0.0000   0.0000   0.0000  -0.8433
 -13.200  -0.1015   0.11718   0.11419  -0.1050  0.5307  0.0044  -2.6145   0.0000   0.0000   0.0000  -0.8845
 -13.100  -0.0981   0.11615   0.11316  -0.1055  0.5292  0.0044  -2.5826   0.0000   0.0000   0.0000  -0.9286
 -13.000  -0.0946   0.11513   0.11214  -0.1060  0.5283  0.0045  -2.5495   0.0000   0.0000   0.0000  -0.9766
 -12.900  -0.0910   0.11414   0.11114  -0.1065  0.5280  0.0045  -2.5149   0.0000   0.0000   0.0000  -1.0291
 -12.800  -0.0875   0.11318   0.11018  -0.1069  0.5247  0.0045  -2.4788   0.0000   0.0000   0.0000  -1.0845
 -12.700  -0.0846   0.11237   0.10930  -0.1072  0.5060  0.0045  -2.4430   0.0000   0.0000   0.0000  -1.1321
 -12.600  -0.0811   0.11148   0.10838  -0.1076  0.4978  0.0046  -2.4043   0.0000   0.0000   0.0000  -1.1954
 -12.500  -0.0775   0.11056   0.10745  -0.1080  0.4933  0.0046  -2.3654   0.0000   0.0000   0.0000  -1.2674
 -12.400  -0.0738   0.10961   0.10649  -0.1084  0.4889  0.0046  -2.3294   0.0000   0.0000   0.0000  -1.3463
 -12.300  -0.0705   0.10859   0.10545  -0.1088  0.4847  0.0046  -2.3015   0.0000   0.0000   0.0000  -1.4283
  -7.900  -0.0107   0.00889   0.00297  -0.1985  0.4010  0.0064  -4.5006   0.0000   0.0000   0.0000  -18.8380
  -7.800   0.0014   0.00883   0.00291  -0.1988  0.3997  0.0063  -4.3963   0.0000   0.0000   0.0000  150.7717
  -7.700   0.0134   0.00879   0.00285  -0.1989  0.3980  0.0063  -4.3044   0.0000   0.0000   0.0000  15.5403
  -7.600   0.0256   0.00874   0.00279  -0.1991  0.3976  0.0062  -4.2271   0.0000   0.0000   0.0000   8.2854
  -7.500   0.0366   0.00877   0.00277  -0.1992  0.3820  0.0062  -4.1540   0.0000   0.0000   0.0000   5.8520
  -7.400   0.0480   0.00878   0.00273  -0.1992  0.3688  0.0062  -4.0804   0.0000   0.0000   0.0000   4.5273
  -7.300   0.0598   0.00876   0.00268  -0.1994  0.3643  0.0061  -4.0055   0.0000   0.0000   0.0000   3.6829
  -7.200   0.0715   0.00875   0.00264  -0.1995  0.3600  0.0061  -3.9312   0.0000   0.0000   0.0000   3.1192
  -7.100   0.0833   0.00874   0.00261  -0.1996  0.3556  0.0060  -3.8573   0.0000   0.0000   0.0000   2.7156
  -7.000   0.0950   0.00872   0.00257  -0.1997  0.3511  0.0060  -3.7837   0.0000   0.0000   0.0000   2.4108
  -6.900   0.1071   0.00869   0.00252  -0.1999  0.3500  0.0060  -3.7093   0.0000   0.0000   0.0000   2.1690
  -6.800   0.1189   0.00867   0.00249  -0.2000  0.3459  0.0060  -3.6361   0.0000   0.0000   0.0000   1.9776
  -6.700   0.1309   0.00865   0.00245  -0.2002  0.3414  0.0059  -3.5632   0.0000   0.0000   0.0000   1.8206
  -6.600   0.1429   0.00862   0.00242  -0.2003  0.3390  0.0059  -3.4905   0.0000   0.0000   0.0000   1.6893
  -6.500   0.1549   0.00859   0.00239  -0.2005  0.3383  0.0058  -3.4180   0.0000   0.0000   0.0000   1.5782
  -6.400   0.1668   0.00857   0.00236  -0.2007  0.3375  0.0058  -3.3456   0.0000   0.0000   0.0000   1.4833
  -6.300   0.1788   0.00854   0.00233  -0.2008  0.3365  0.0058  -3.2733   0.0000   0.0000   0.0000   1.4012
  -6.200   0.1907   0.00852   0.00231  -0.2010  0.3351  0.0058  -3.2011   0.0000   0.0000   0.0000   1.3295
  -6.100   0.2027   0.00850   0.00228  -0.2011  0.3346  0.0058  -3.1288   0.0000   0.0000   0.0000   1.2661
  -5.900   0.2249   0.00860   0.00229  -0.2011  0.3081  0.0058  -2.9892   0.0000   0.0000   0.0000   1.1650
  -5.800   0.2365   0.00860   0.00228  -0.2012  0.3041  0.0057  -2.9166   0.0000   0.0000   0.0000   1.1199
  -5.700   0.2481   0.00861   0.00227  -0.2013  0.3001  0.0057  -2.8439   0.0000   0.0000   0.0000   1.0793
  -5.600   0.2596   0.00863   0.00227  -0.2013  0.2962  0.0057  -2.7687   0.0000   0.0000   0.0000   1.0424
  -5.500   0.2697   0.00876   0.00246  -0.2011  0.2923  0.0057  -2.6016   0.0000   0.0000   0.0000   1.0115
  -5.400   0.2814   0.00876   0.00245  -0.2012  0.2880  0.0056  -2.5343   0.0000   0.0000   0.0000   0.9800
  -5.300   0.2932   0.00875   0.00244  -0.2013  0.2834  0.0056  -2.4695   0.0000   0.0000   0.0000   0.9508
  -5.200   0.3050   0.00874   0.00242  -0.2015  0.2796  0.0055  -2.4066   0.0000   0.0000   0.0000   0.9237
  -5.100   0.3170   0.00872   0.00240  -0.2016  0.2784  0.0055  -2.3455   0.0000   0.0000   0.0000   0.8985
  -5.000   0.3290   0.00870   0.00237  -0.2018  0.2777  0.0055  -2.2860   0.0000   0.0000   0.0000   0.8751
  -4.900   0.3410   0.00868   0.00235  -0.2019  0.2769  0.0054  -2.2281   0.0000   0.0000   0.0000   0.8533
  -4.800   0.3529   0.00866   0.00232  -0.2021  0.2759  0.0054  -2.1716   0.0000   0.0000   0.0000   0.8331
  -4.700   0.3649   0.00864   0.00229  -0.2022  0.2748  0.0053  -2.1166   0.0000   0.0000   0.0000   0.8141
  -4.600   0.3770   0.00861   0.00226  -0.2024  0.2746  0.0053  -2.0629   0.0000   0.0000   0.0000   0.7963
  -4.500   0.3879   0.00869   0.00228  -0.2024  0.2583  0.0053  -2.0135   0.0000   0.0000   0.0000   0.7806
  -4.400   0.3993   0.00872   0.00225  -0.2024  0.2482  0.0052  -1.9652   0.0000   0.0000   0.0000   0.7654
  -4.300   0.4111   0.00871   0.00223  -0.2025  0.2451  0.0052  -1.9163   0.0000   0.0000   0.0000   0.7507
  -4.200   0.4229   0.00871   0.00221  -0.2027  0.2421  0.0052  -1.8692   0.0000   0.0000   0.0000   0.7368
  -4.100   0.4346   0.00871   0.00218  -0.2028  0.2391  0.0052  -1.8244   0.0000   0.0000   0.0000   0.7237
  -4.000   0.4469   0.00868   0.00210  -0.2030  0.2361  0.0052  -1.8195   0.0000   0.0000   0.0000   0.7109
  -3.900   0.4589   0.00867   0.00208  -0.2031  0.2331  0.0052  -1.7873   0.0000   0.0000   0.0000   0.6990
  -3.800   0.4707   0.00867   0.00206  -0.2033  0.2300  0.0052  -1.7468   0.0000   0.0000   0.0000   0.6878
  -3.700   0.4826   0.00866   0.00205  -0.2034  0.2265  0.0052  -1.7055   0.0000   0.0000   0.0000   0.6771
  -3.600   0.4944   0.00866   0.00204  -0.2035  0.2236  0.0053  -1.6678   0.0000   0.0000   0.0000   0.6669
  -3.500   0.5073   0.00858   0.00202  -0.2039  0.2220  0.0139  -1.6804   0.0000   0.0000   0.0000   0.6569
  -3.400   0.5190   0.00858   0.00202  -0.2040  0.2216  0.0143  -1.6172   0.0000   0.0000   0.0000   0.6477
  -3.300   0.5308   0.00859   0.00202  -0.2041  0.2211  0.0147  -1.5539   0.0000   0.0000   0.0000   0.6390
  -3.200   0.5425   0.00859   0.00202  -0.2042  0.2206  0.0149  -1.4900   0.0000   0.0000   0.0000   0.6306
  -3.100   0.5542   0.00859   0.00202  -0.2043  0.2200  0.0152  -1.4253   0.0000   0.0000   0.0000   0.6226
  -3.000   0.5658   0.00860   0.00203  -0.2044  0.2193  0.0154  -1.3598   0.0000   0.0000   0.0000   0.6149
  -2.900   0.5774   0.00861   0.00204  -0.2045  0.2184  0.0157  -1.2940   0.0000   0.0000   0.0000   0.6075
  -2.800   0.5890   0.00862   0.00205  -0.2046  0.2179  0.0158  -1.2290   0.0000   0.0000   0.0000   0.6004
  -2.300   0.6448   0.00891   0.00213  -0.2046  0.1697  0.0155  -1.0146   0.0000   0.0000   0.0000   0.5693
  -2.200   0.6564   0.00892   0.00213  -0.2047  0.1693  0.0157  -0.9597   0.0000   0.0000   0.0000   0.5636
  -2.100   0.6680   0.00893   0.00214  -0.2048  0.1688  0.0158  -0.9266   0.0000   0.0000   0.0000   0.5582
  -2.000   0.6796   0.00894   0.00215  -0.2049  0.1684  0.0160  -0.9353   0.0000   0.0000   0.0000   0.5529
  -1.900   0.6912   0.00895   0.00216  -0.2049  0.1679  0.0161  -0.9441   0.0000   0.0000   0.0000   0.5477
  -1.800   0.7028   0.00896   0.00217  -0.2050  0.1672  0.0162  -0.9529   0.0000   0.0000   0.0000   0.5428
  -1.700   0.7144   0.00898   0.00218  -0.2051  0.1663  0.0163  -0.9616   0.0000   0.0000   0.0000   0.5380
  -1.600   0.7260   0.00899   0.00219  -0.2052  0.1660  0.0164  -0.9719   0.0000   0.0000   0.0000   0.5333
  -1.500   0.7368   0.00908   0.00224  -0.2051  0.1544  0.0165  -0.9821   0.0000   0.0000   0.0000   0.5289
  -1.400   0.7477   0.00915   0.00228  -0.2051  0.1457  0.0165  -0.9923   0.0000   0.0000   0.0000   0.5247
  -1.300   0.7591   0.00918   0.00230  -0.2051  0.1442  0.0166  -1.0026   0.0000   0.0000   0.0000   0.5204
  -1.200   0.7705   0.00921   0.00231  -0.2052  0.1426  0.0167  -1.0129   0.0000   0.0000   0.0000   0.5163
  -1.100   0.7820   0.00923   0.00233  -0.2052  0.1411  0.0167  -1.0232   0.0000   0.0000   0.0000   0.5123
  -1.000   0.7933   0.00927   0.00235  -0.2053  0.1396  0.0167  -1.0335   0.0000   0.0000   0.0000   0.5084
  -0.900   0.8047   0.00930   0.00236  -0.2053  0.1381  0.0168  -1.0438   0.0000   0.0000   0.0000   0.5047
  -0.800   0.8161   0.00933   0.00238  -0.2054  0.1365  0.0168  -1.0541   0.0000   0.0000   0.0000   0.5010
  -0.700   0.8275   0.00936   0.00240  -0.2054  0.1343  0.0168  -1.0644   0.0000   0.0000   0.0000   0.4974
  -0.600   0.8388   0.00939   0.00242  -0.2054  0.1306  0.0168  -1.0747   0.0000   0.0000   0.0000   0.4940
  -0.500   0.8502   0.00942   0.00244  -0.2055  0.1265  0.0169  -1.0850   0.0000   0.0000   0.0000   0.4906
  -0.400   0.8616   0.00944   0.00246  -0.2056  0.1241  0.0171  -1.0953   0.0000   0.0000   0.0000   0.4873
  -0.200   0.8846   0.00948   0.00248  -0.2057  0.1237  0.0185  -1.1162   0.0000   0.0000   0.0000   0.4810
  -0.100   0.8961   0.00950   0.00250  -0.2058  0.1234  0.0185  -1.1267   0.0000   0.0000   0.0000   0.4779
   0.000   0.9075   0.00952   0.00252  -0.2058  0.1231  0.0186  -1.1371   0.0000   0.0000   0.0000   0.4749


