xflr5 v6.59

 Calculated polar for: WORTMANN FX 63-137 AIRFOIL

 1 1 Reynolds number fixed          Mach number fixed         

 xtrf =   1.000 (top)        1.000 (bottom)
 Mach =   0.000     Re =     0.600 e 6     Ncrit =   9.000

  alpha     CL        CD       CDp       Cm    Top Xtr Bot Xtr   Cpmin    Chinge    XCp    
 ------- -------- --------- --------- -------- ------- ------- -------- --------- ---------
 -19.800  -0.4139   0.22878   0.22623  -0.0198  1.0000  0.0098  -1.4821   0.0000   0.0000   0.0000   0.1712
 -19.700  -0.4110   0.22773   0.22519  -0.0204  1.0000  0.0098  -1.4853   0.0000   0.0000   0.0000   0.1695
 -19.600  -0.4081   0.22668   0.22414  -0.0210  1.0000  0.0098  -1.4885   0.0000   0.0000   0.0000   0.1678
 -19.500  -0.4052   0.22562   0.22309  -0.0215  1.0000  0.0098  -1.4918   0.0000   0.0000   0.0000   0.1660
 -19.400  -0.4023   0.22456   0.22203  -0.0221  1.0000  0.0098  -1.4948   0.0000   0.0000   0.0000   0.1643
 -19.300  -0.3995   0.22348   0.22096  -0.0226  1.0000  0.0098  -1.4977   0.0000   0.0000   0.0000   0.1625
 -19.200  -0.3967   0.22239   0.21986  -0.0232  1.0000  0.0098  -1.5008   0.0000   0.0000   0.0000   0.1607
 -19.100  -0.3939   0.22126   0.21874  -0.0237  1.0000  0.0098  -1.5040   0.0000   0.0000   0.0000   0.1590
 -19.000  -0.3911   0.22010   0.21758  -0.0242  1.0000  0.0098  -1.5075   0.0000   0.0000   0.0000   0.1572
 -18.900  -0.3884   0.21890   0.21639  -0.0247  1.0000  0.0098  -1.5111   0.0000   0.0000   0.0000   0.1554
 -18.800  -0.3857   0.21770   0.21519  -0.0252  1.0000  0.0099  -1.5148   0.0000   0.0000   0.0000   0.1537
 -18.700  -0.3831   0.21650   0.21400  -0.0258  1.0000  0.0099  -1.5187   0.0000   0.0000   0.0000   0.1519
 -18.600  -0.3804   0.21530   0.21279  -0.0263  1.0000  0.0099  -1.5227   0.0000   0.0000   0.0000   0.1501
 -18.500  -0.3778   0.21410   0.21160  -0.0268  1.0000  0.0099  -1.5268   0.0000   0.0000   0.0000   0.1482
 -18.400  -0.3752   0.21288   0.21039  -0.0273  1.0000  0.0099  -1.5310   0.0000   0.0000   0.0000   0.1464
 -18.300  -0.3726   0.21167   0.20918  -0.0277  1.0000  0.0099  -1.5354   0.0000   0.0000   0.0000   0.1446
 -18.200  -0.3700   0.21045   0.20796  -0.0282  1.0000  0.0099  -1.5398   0.0000   0.0000   0.0000   0.1428
 -18.100  -0.3674   0.20923   0.20675  -0.0287  1.0000  0.0099  -1.5445   0.0000   0.0000   0.0000   0.1409
 -18.000  -0.3649   0.20800   0.20552  -0.0292  1.0000  0.0099  -1.5490   0.0000   0.0000   0.0000   0.1391
 -17.900  -0.3623   0.20677   0.20430  -0.0296  1.0000  0.0099  -1.5535   0.0000   0.0000   0.0000   0.1372
 -17.800  -0.3598   0.20554   0.20307  -0.0301  1.0000  0.0099  -1.5582   0.0000   0.0000   0.0000   0.1353
 -17.700  -0.3573   0.20430   0.20183  -0.0306  1.0000  0.0099  -1.5630   0.0000   0.0000   0.0000   0.1335
 -17.600  -0.3548   0.20306   0.20060  -0.0310  1.0000  0.0099  -1.5680   0.0000   0.0000   0.0000   0.1316
 -17.500  -0.3523   0.20182   0.19936  -0.0315  1.0000  0.0099  -1.5740   0.0000   0.0000   0.0000   0.1297
 -17.400  -0.3499   0.20057   0.19812  -0.0319  1.0000  0.0099  -1.5805   0.0000   0.0000   0.0000   0.1278
 -17.300  -0.3475   0.19933   0.19687  -0.0323  1.0000  0.0099  -1.5872   0.0000   0.0000   0.0000   0.1259
 -17.200  -0.3451   0.19807   0.19563  -0.0327  1.0000  0.0099  -1.5939   0.0000   0.0000   0.0000   0.1240
 -17.100  -0.3427   0.19682   0.19437  -0.0332  1.0000  0.0099  -1.6007   0.0000   0.0000   0.0000   0.1222
 -17.000  -0.3403   0.19556   0.19312  -0.0336  1.0000  0.0100  -1.6078   0.0000   0.0000   0.0000   0.1203
 -16.800  -0.3381   0.19029   0.18788  -0.0333  1.0000  0.0106  -1.6420   0.0000   0.0000   0.0000   0.1202
 -16.700  -0.3352   0.18926   0.18685  -0.0336  1.0000  0.0106  -1.6177   0.0000   0.0000   0.0000   0.1187
 -16.600  -0.3323   0.18824   0.18583  -0.0338  1.0000  0.0107  -1.5948   0.0000   0.0000   0.0000   0.1171
 -16.500  -0.3295   0.18722   0.18482  -0.0340  1.0000  0.0108  -1.5732   0.0000   0.0000   0.0000   0.1155
 -16.400  -0.3267   0.18621   0.18381  -0.0343  1.0000  0.0109  -1.5528   0.0000   0.0000   0.0000   0.1139
 -16.300  -0.3240   0.18519   0.18280  -0.0346  1.0000  0.0110  -1.5337   0.0000   0.0000   0.0000   0.1122
 -16.200  -0.3213   0.18417   0.18178  -0.0348  1.0000  0.0111  -1.5158   0.0000   0.0000   0.0000   0.1105
 -16.100  -0.3186   0.18314   0.18076  -0.0351  1.0000  0.0112  -1.4990   0.0000   0.0000   0.0000   0.1087
 -16.000  -0.3160   0.18211   0.17973  -0.0354  1.0000  0.0113  -1.4834   0.0000   0.0000   0.0000   0.1070
 -15.900  -0.3134   0.18107   0.17870  -0.0356  1.0000  0.0114  -1.4690   0.0000   0.0000   0.0000   0.1052
 -15.800  -0.3109   0.18003   0.17766  -0.0359  1.0000  0.0115  -1.4558   0.0000   0.0000   0.0000   0.1034
 -15.700  -0.3084   0.17896   0.17658  -0.0362  1.0000  0.0117  -1.4442   0.0000   0.0000   0.0000   0.1016
 -15.600  -0.3059   0.17790   0.17552  -0.0364  1.0000  0.0118  -1.4328   0.0000   0.0000   0.0000   0.0998
 -15.500  -0.3035   0.17684   0.17447  -0.0367  1.0000  0.0120  -1.4226   0.0000   0.0000   0.0000   0.0980
 -15.400  -0.3011   0.17577   0.17340  -0.0369  1.0000  0.0121  -1.4133   0.0000   0.0000   0.0000   0.0962
 -15.300  -0.2988   0.17469   0.17233  -0.0372  1.0000  0.0123  -1.4052   0.0000   0.0000   0.0000   0.0944
 -15.200  -0.2965   0.17361   0.17125  -0.0374  1.0000  0.0125  -1.3980   0.0000   0.0000   0.0000   0.0926
 -15.100  -0.2942   0.17251   0.17017  -0.0377  1.0000  0.0128  -1.3918   0.0000   0.0000   0.0000   0.0908
 -15.000  -0.2920   0.17142   0.16908  -0.0379  1.0000  0.0130  -1.3867   0.0000   0.0000   0.0000   0.0891
 -14.900  -0.2899   0.17031   0.16798  -0.0382  1.0000  0.0133  -1.3825   0.0000   0.0000   0.0000   0.0873
 -14.800  -0.2878   0.16920   0.16687  -0.0384  1.0000  0.0135  -1.3794   0.0000   0.0000   0.0000   0.0856
 -14.700  -0.2857   0.16809   0.16577  -0.0386  1.0000  0.0138  -1.3775   0.0000   0.0000   0.0000   0.0839
 -14.600  -0.2837   0.16697   0.16465  -0.0388  1.0000  0.0142  -1.3768   0.0000   0.0000   0.0000   0.0822
 -14.500  -0.2817   0.16584   0.16353  -0.0390  1.0000  0.0146  -1.3777   0.0000   0.0000   0.0000   0.0805
 -14.400  -0.2797   0.16471   0.16241  -0.0392  1.0000  0.0150  -1.3810   0.0000   0.0000   0.0000   0.0787
 -14.300  -0.2777   0.16360   0.16130  -0.0395  1.0000  0.0155  -1.3885   0.0000   0.0000   0.0000   0.0768
 -14.200  -0.2756   0.16252   0.16024  -0.0398  1.0000  0.0160  -1.4020   0.0000   0.0000   0.0000   0.0747
 -14.100  -0.2738   0.16148   0.15920  -0.0401  1.0000  0.0163  -1.4167   0.0000   0.0000   0.0000   0.0727
 -14.000  -0.2723   0.16042   0.15815  -0.0403  1.0000  0.0165  -1.4299   0.0000   0.0000   0.0000   0.0710
 -13.900  -0.2709   0.15935   0.15709  -0.0405  1.0000  0.0166  -1.4422   0.0000   0.0000   0.0000   0.0695
 -13.800  -0.2697   0.15827   0.15602  -0.0407  1.0000  0.0167  -1.4542   0.0000   0.0000   0.0000   0.0682
 -13.700  -0.2685   0.15719   0.15494  -0.0409  1.0000  0.0167  -1.4660   0.0000   0.0000   0.0000   0.0671
 -13.600  -0.2675   0.15609   0.15386  -0.0410  1.0000  0.0168  -1.4780   0.0000   0.0000   0.0000   0.0662
 -13.500  -0.2666   0.15500   0.15277  -0.0411  1.0000  0.0168  -1.4900   0.0000   0.0000   0.0000   0.0654
 -13.400  -0.2658   0.15389   0.15168  -0.0412  1.0000  0.0168  -1.5023   0.0000   0.0000   0.0000   0.0648
 -13.300  -0.2652   0.15278   0.15058  -0.0412  1.0000  0.0169  -1.5149   0.0000   0.0000   0.0000   0.0645
 -13.200  -0.2647   0.15168   0.14949  -0.0412  1.0000  0.0169  -1.5277   0.0000   0.0000   0.0000   0.0645
 -13.100  -0.2644   0.15060   0.14842  -0.0411  1.0000  0.0169  -1.5410   0.0000   0.0000   0.0000   0.0648
 -12.900  -0.2545   0.14710   0.14492  -0.0438  0.9994  0.0169  -1.5664   0.0000   0.0000   0.0000   0.0472
 -12.800  -0.2492   0.14529   0.14311  -0.0453  0.9991  0.0169  -1.5808   0.0000   0.0000   0.0000   0.0373
 -12.700  -0.2441   0.14346   0.14128  -0.0467  0.9987  0.0169  -1.5964   0.0000   0.0000   0.0000   0.0270
 -12.600  -0.2389   0.14161   0.13943  -0.0481  0.9983  0.0169  -1.6136   0.0000   0.0000   0.0000   0.0163
 -12.500  -0.2338   0.13974   0.13755  -0.0496  0.9978  0.0169  -1.6322   0.0000   0.0000   0.0000   0.0051
 -12.400  -0.2287   0.13784   0.13566  -0.0510  0.9974  0.0169  -1.6532   0.0000   0.0000   0.0000  -0.0066
 -12.300  -0.2237   0.13592   0.13374  -0.0524  0.9969  0.0169  -1.6774   0.0000   0.0000   0.0000  -0.0187
 -12.200  -0.2188   0.13396   0.13178  -0.0539  0.9965  0.0169  -1.7058   0.0000   0.0000   0.0000  -0.0311
 -12.100  -0.2141   0.13194   0.12975  -0.0553  0.9961  0.0169  -1.7403   0.0000   0.0000   0.0000  -0.0439
 -12.000  -0.2099   0.12979   0.12761  -0.0567  0.9957  0.0168  -1.7848   0.0000   0.0000   0.0000  -0.0564
 -11.900  -0.2080   0.12730   0.12512  -0.0572  0.9952  0.0155  -1.8269   0.0000   0.0000   0.0000  -0.0613
 -11.800  -0.2040   0.12524   0.12305  -0.0586  0.9944  0.0153  -1.8732   0.0000   0.0000   0.0000  -0.0744
 -11.700  -0.1995   0.12327   0.12109  -0.0601  0.9937  0.0152  -1.9069   0.0000   0.0000   0.0000  -0.0891
 -11.600  -0.1949   0.12136   0.11917  -0.0616  0.9930  0.0152  -1.9318   0.0000   0.0000   0.0000  -0.1048
 -11.500  -0.1902   0.11946   0.11728  -0.0632  0.9923  0.0150  -1.9525   0.0000   0.0000   0.0000  -0.1215
 -11.400  -0.1855   0.11758   0.11539  -0.0647  0.9916  0.0149  -1.9716   0.0000   0.0000   0.0000  -0.1391
 -11.300  -0.1808   0.11568   0.11349  -0.0663  0.9910  0.0147  -1.9904   0.0000   0.0000   0.0000  -0.1580
 -11.200  -0.1760   0.11374   0.11155  -0.0680  0.9904  0.0145  -2.0102   0.0000   0.0000   0.0000  -0.1787
 -11.100  -0.1722   0.11183   0.10965  -0.0694  0.9887  0.0144  -2.0313   0.0000   0.0000   0.0000  -0.1956
 -11.000  -0.1681   0.10986   0.10767  -0.0709  0.9872  0.0142  -2.0553   0.0000   0.0000   0.0000  -0.2153
 -10.900  -0.1639   0.10782   0.10563  -0.0725  0.9859  0.0139  -2.0832   0.0000   0.0000   0.0000  -0.2372
 -10.800  -0.1595   0.10575   0.10356  -0.0743  0.9847  0.0138  -2.1105   0.0000   0.0000   0.0000  -0.2614
 -10.700  -0.1545   0.10379   0.10160  -0.0761  0.9836  0.0139  -2.1267   0.0000   0.0000   0.0000  -0.2896
 -10.600  -0.1509   0.10200   0.09981  -0.0774  0.9810  0.0140  -2.1410   0.0000   0.0000   0.0000  -0.3108
 -10.500  -0.1475   0.10020   0.09801  -0.0787  0.9779  0.0141  -2.1574   0.0000   0.0000   0.0000  -0.3321
 -10.400  -0.1434   0.09825   0.09607  -0.0803  0.9756  0.0142  -2.1780   0.0000   0.0000   0.0000  -0.3600
 -10.300  -0.1392   0.09618   0.09400  -0.0821  0.9738  0.0143  -2.2049   0.0000   0.0000   0.0000  -0.3912
 -10.200  -0.1385   0.09442   0.09224  -0.0829  0.9678  0.0143  -2.2369   0.0000   0.0000   0.0000  -0.3993
 -10.100  -0.1358   0.09230   0.09012  -0.0845  0.9643  0.0142  -2.2757   0.0000   0.0000   0.0000  -0.4238
  -9.900  -0.2905   0.01984   0.01593  -0.1738  0.9201  0.0111  -6.5663   0.0000   0.0000   0.0000  -0.3778
  -9.800  -0.2725   0.01945   0.01548  -0.1758  0.9174  0.0113  -6.3999   0.0000   0.0000   0.0000  -0.4264
  -9.700  -0.2565   0.01902   0.01499  -0.1775  0.9137  0.0115  -6.2587   0.0000   0.0000   0.0000  -0.4747
  -9.600  -0.2428   0.01858   0.01448  -0.1787  0.9086  0.0117  -6.1509   0.0000   0.0000   0.0000  -0.5199
  -9.500  -0.2279   0.01809   0.01390  -0.1802  0.9040  0.0120  -6.0418   0.0000   0.0000   0.0000  -0.5764
  -9.400  -0.2123   0.01758   0.01329  -0.1818  0.8999  0.0122  -5.9337   0.0000   0.0000   0.0000  -0.6440
  -9.300  -0.1972   0.01708   0.01265  -0.1832  0.8959  0.0125  -5.8314   0.0000   0.0000   0.0000  -0.7193
  -9.200  -0.1853   0.01667   0.01217  -0.1839  0.8909  0.0128  -5.7386   0.0000   0.0000   0.0000  -0.7845
  -9.100  -0.1725   0.01629   0.01170  -0.1847  0.8860  0.0130  -5.6404   0.0000   0.0000   0.0000  -0.8656
  -9.000  -0.1591   0.01593   0.01125  -0.1856  0.8815  0.0133  -5.5384   0.0000   0.0000   0.0000  -0.9647
  -8.900  -0.1453   0.01560   0.01082  -0.1866  0.8773  0.0136  -5.4338   0.0000   0.0000   0.0000  -1.0854
  -8.800  -0.1335   0.01531   0.01046  -0.1870  0.8731  0.0139  -5.3371   0.0000   0.0000   0.0000  -1.2059
  -8.700  -0.1223   0.01504   0.01013  -0.1874  0.8685  0.0141  -5.2424   0.0000   0.0000   0.0000  -1.3416
  -8.600  -0.1105   0.01478   0.00980  -0.1878  0.8640  0.0143  -5.1449   0.0000   0.0000   0.0000  -1.5151
  -8.500  -0.0982   0.01454   0.00948  -0.1883  0.8598  0.0145  -5.0458   0.0000   0.0000   0.0000  -1.7397
  -8.400  -0.0856   0.01430   0.00917  -0.1888  0.8560  0.0147  -4.9458   0.0000   0.0000   0.0000  -2.0365
  -8.300  -0.0734   0.01407   0.00887  -0.1893  0.8525  0.0149  -4.8479   0.0000   0.0000   0.0000  -2.4229
  -8.200  -0.0621   0.01389   0.00864  -0.1896  0.8491  0.0150  -4.7508   0.0000   0.0000   0.0000  -2.9132
  -8.100  -0.0505   0.01374   0.00845  -0.1898  0.8456  0.0152  -4.6513   0.0000   0.0000   0.0000  -3.6378
  -8.000  -0.0387   0.01353   0.00817  -0.1902  0.8422  0.0153  -4.5565   0.0000   0.0000   0.0000  -4.8378
  -7.900  -0.0265   0.01327   0.00784  -0.1906  0.8389  0.0153  -4.4653   0.0000   0.0000   0.0000  -7.1957
  -7.800  -0.0141   0.01304   0.00753  -0.1911  0.8357  0.0153  -4.3726   0.0000   0.0000   0.0000  -13.7111
  -7.700  -0.0017   0.01283   0.00725  -0.1915  0.8326  0.0153  -4.2791   0.0000   0.0000   0.0000  -113.4827
  -7.600   0.0108   0.01265   0.00699  -0.1920  0.8295  0.0154  -4.1845   0.0000   0.0000   0.0000  18.6039
  -7.500   0.0224   0.01246   0.00677  -0.1923  0.8269  0.0154  -4.0935   0.0000   0.0000   0.0000   9.0911
  -7.400   0.0342   0.01229   0.00655  -0.1925  0.8238  0.0154  -4.0019   0.0000   0.0000   0.0000   6.0598
  -7.300   0.0460   0.01213   0.00635  -0.1928  0.8205  0.0154  -3.9100   0.0000   0.0000   0.0000   4.5708
  -7.200   0.0579   0.01199   0.00616  -0.1931  0.8170  0.0155  -3.8179   0.0000   0.0000   0.0000   3.6865
  -7.100   0.0698   0.01186   0.00599  -0.1933  0.8134  0.0155  -3.7256   0.0000   0.0000   0.0000   3.1011
  -7.000   0.0818   0.01175   0.00582  -0.1936  0.8097  0.0156  -3.6333   0.0000   0.0000   0.0000   2.6861
  -6.900   0.0937   0.01166   0.00564  -0.1938  0.8059  0.0156  -3.5393   0.0000   0.0000   0.0000   2.3768
  -6.800   0.1055   0.01156   0.00550  -0.1940  0.8026  0.0157  -3.4490   0.0000   0.0000   0.0000   2.1403
  -6.700   0.1171   0.01145   0.00537  -0.1942  0.7994  0.0157  -3.3600   0.0000   0.0000   0.0000   1.9537
  -6.600   0.1288   0.01136   0.00525  -0.1944  0.7957  0.0158  -3.2713   0.0000   0.0000   0.0000   1.8004
  -6.500   0.1404   0.01128   0.00514  -0.1945  0.7918  0.0159  -3.1830   0.0000   0.0000   0.0000   1.6724
  -6.400   0.1520   0.01121   0.00503  -0.1946  0.7879  0.0159  -3.0953   0.0000   0.0000   0.0000   1.5640
  -6.300   0.1636   0.01116   0.00494  -0.1948  0.7839  0.0160  -3.0083   0.0000   0.0000   0.0000   1.4712
  -6.200   0.1752   0.01112   0.00485  -0.1949  0.7798  0.0161  -2.9222   0.0000   0.0000   0.0000   1.3904
  -6.100   0.1869   0.01107   0.00478  -0.1950  0.7764  0.0162  -2.8545   0.0000   0.0000   0.0000   1.3195
  -6.000   0.1983   0.01100   0.00471  -0.1951  0.7734  0.0163  -2.7869   0.0000   0.0000   0.0000   1.2578
  -5.900   0.2097   0.01095   0.00465  -0.1952  0.7697  0.0164  -2.7187   0.0000   0.0000   0.0000   1.2029
  -5.800   0.2211   0.01091   0.00461  -0.1952  0.7657  0.0165  -2.6499   0.0000   0.0000   0.0000   1.1538
  -5.700   0.2323   0.01089   0.00457  -0.1953  0.7616  0.0166  -2.5804   0.0000   0.0000   0.0000   1.1097
  -5.600   0.2435   0.01088   0.00454  -0.1953  0.7574  0.0167  -2.5102   0.0000   0.0000   0.0000   1.0699
  -5.500   0.2545   0.01090   0.00454  -0.1952  0.7531  0.0168  -2.4393   0.0000   0.0000   0.0000   1.0339
  -5.400   0.2656   0.01092   0.00455  -0.1952  0.7493  0.0169  -2.3666   0.0000   0.0000   0.0000   1.0008
  -5.300   0.2766   0.01094   0.00459  -0.1951  0.7464  0.0170  -2.2914   0.0000   0.0000   0.0000   0.9703
  -5.200   0.2873   0.01100   0.00467  -0.1950  0.7432  0.0172  -2.2125   0.0000   0.0000   0.0000   0.9426
  -5.000   0.3092   0.01106   0.00475  -0.1949  0.7362  0.0177  -2.0675   0.0000   0.0000   0.0000   0.8925
  -4.900   0.3221   0.01084   0.00446  -0.1954  0.7326  0.0180  -2.0318   0.0000   0.0000   0.0000   0.8682
  -4.800   0.3348   0.01066   0.00422  -0.1958  0.7292  0.0185  -1.9940   0.0000   0.0000   0.0000   0.8459
  -4.700   0.3473   0.01053   0.00404  -0.1962  0.7257  0.0190  -1.9534   0.0000   0.0000   0.0000   0.8254
  -4.600   0.3595   0.01044   0.00389  -0.1965  0.7223  0.0196  -1.9097   0.0000   0.0000   0.0000   0.8063
  -4.500   0.3719   0.01034   0.00378  -0.1968  0.7200  0.0201  -1.8629   0.0000   0.0000   0.0000   0.7885
  -4.400   0.3842   0.01026   0.00369  -0.1971  0.7182  0.0207  -1.8141   0.0000   0.0000   0.0000   0.7717
  -4.300   0.3964   0.01018   0.00360  -0.1974  0.7161  0.0213  -1.7637   0.0000   0.0000   0.0000   0.7561
  -4.200   0.4086   0.01011   0.00352  -0.1976  0.7139  0.0217  -1.7126   0.0000   0.0000   0.0000   0.7414
  -4.100   0.4208   0.01005   0.00346  -0.1979  0.7115  0.0221  -1.6613   0.0000   0.0000   0.0000   0.7276
  -4.000   0.4329   0.00999   0.00339  -0.1981  0.7088  0.0225  -1.6104   0.0000   0.0000   0.0000   0.7145
  -3.900   0.4450   0.00993   0.00332  -0.1983  0.7060  0.0228  -1.5601   0.0000   0.0000   0.0000   0.7022
  -3.800   0.4570   0.00987   0.00325  -0.1986  0.7032  0.0231  -1.5105   0.0000   0.0000   0.0000   0.6906
  -3.700   0.4690   0.00982   0.00317  -0.1988  0.7002  0.0233  -1.4618   0.0000   0.0000   0.0000   0.6795
  -3.600   0.4810   0.00978   0.00310  -0.1989  0.6972  0.0236  -1.4137   0.0000   0.0000   0.0000   0.6690
  -3.500   0.4927   0.00975   0.00305  -0.1991  0.6942  0.0241  -1.3619   0.0000   0.0000   0.0000   0.6592
  -3.400   0.5043   0.00973   0.00302  -0.1992  0.6912  0.0249  -1.3081   0.0000   0.0000   0.0000   0.6498
  -3.300   0.5162   0.00970   0.00299  -0.1994  0.6892  0.0257  -1.2543   0.0000   0.0000   0.0000   0.6407
  -3.200   0.5281   0.00967   0.00296  -0.1995  0.6869  0.0263  -1.2027   0.0000   0.0000   0.0000   0.6321
  -3.100   0.5401   0.00964   0.00293  -0.1997  0.6845  0.0267  -1.1538   0.0000   0.0000   0.0000   0.6238
  -3.000   0.5524   0.00958   0.00285  -0.2000  0.6819  0.0271  -1.1100   0.0000   0.0000   0.0000   0.6157
  -2.900   0.5648   0.00951   0.00275  -0.2003  0.6792  0.0274  -1.0702   0.0000   0.0000   0.0000   0.6080
  -2.800   0.5770   0.00946   0.00267  -0.2005  0.6764  0.0274  -1.0301   0.0000   0.0000   0.0000   0.6007
  -2.700   0.5890   0.00942   0.00260  -0.2007  0.6735  0.0275  -0.9903   0.0000   0.0000   0.0000   0.5936
  -2.600   0.6009   0.00939   0.00253  -0.2008  0.6706  0.0276  -0.9506   0.0000   0.0000   0.0000   0.5869
  -2.500   0.6127   0.00937   0.00248  -0.2009  0.6676  0.0277  -0.9114   0.0000   0.0000   0.0000   0.5804
  -2.400   0.6244   0.00936   0.00242  -0.2010  0.6644  0.0279  -0.8836   0.0000   0.0000   0.0000   0.5742
  -2.300   0.6361   0.00935   0.00236  -0.2011  0.6613  0.0280  -0.8922   0.0000   0.0000   0.0000   0.5682
  -2.200   0.6482   0.00933   0.00232  -0.2013  0.6594  0.0284  -0.9009   0.0000   0.0000   0.0000   0.5624
  -2.100   0.6603   0.00930   0.00229  -0.2015  0.6574  0.0288  -0.9097   0.0000   0.0000   0.0000   0.5568
  -2.000   0.6723   0.00927   0.00226  -0.2017  0.6551  0.0294  -0.9185   0.0000   0.0000   0.0000   0.5514
  -1.900   0.6843   0.00925   0.00223  -0.2018  0.6523  0.0300  -0.9272   0.0000   0.0000   0.0000   0.5462
  -1.800   0.6961   0.00923   0.00220  -0.2019  0.6489  0.0308  -0.9359   0.0000   0.0000   0.0000   0.5412
  -1.700   0.7078   0.00923   0.00218  -0.2020  0.6452  0.0317  -0.9446   0.0000   0.0000   0.0000   0.5363
  -1.600   0.7194   0.00923   0.00216  -0.2021  0.6412  0.0327  -0.9536   0.0000   0.0000   0.0000   0.5316
  -1.500   0.7309   0.00923   0.00213  -0.2022  0.6372  0.0349  -0.9636   0.0000   0.0000   0.0000   0.5271
  -1.400   0.7421   0.00925   0.00212  -0.2022  0.6332  0.0361  -0.9735   0.0000   0.0000   0.0000   0.5228
  -1.300   0.7532   0.00927   0.00211  -0.2021  0.6293  0.0364  -0.9834   0.0000   0.0000   0.0000   0.5185
  -1.200   0.7649   0.00928   0.00209  -0.2022  0.6264  0.0366  -0.9936   0.0000   0.0000   0.0000   0.5144
  -1.100   0.7765   0.00928   0.00208  -0.2023  0.6233  0.0368  -1.0037   0.0000   0.0000   0.0000   0.5104
  -1.000   0.7880   0.00929   0.00208  -0.2024  0.6200  0.0369  -1.0138   0.0000   0.0000   0.0000   0.5065
  -0.900   0.7994   0.00931   0.00207  -0.2024  0.6164  0.0371  -1.0239   0.0000   0.0000   0.0000   0.5027
  -0.800   0.8107   0.00933   0.00207  -0.2024  0.6127  0.0373  -1.0339   0.0000   0.0000   0.0000   0.4990
  -0.700   0.8218   0.00935   0.00207  -0.2024  0.6090  0.0375  -1.0439   0.0000   0.0000   0.0000   0.4955
  -0.600   0.8329   0.00939   0.00207  -0.2024  0.6051  0.0377  -1.0538   0.0000   0.0000   0.0000   0.4920
  -0.500   0.8438   0.00943   0.00208  -0.2023  0.6011  0.0379  -1.0636   0.0000   0.0000   0.0000   0.4886
  -0.400   0.8548   0.00946   0.00209  -0.2023  0.5973  0.0381  -1.0735   0.0000   0.0000   0.0000   0.4853
  -0.300   0.8666   0.00946   0.00210  -0.2024  0.5951  0.0384  -1.0839   0.0000   0.0000   0.0000   0.4821
  -0.200   0.8782   0.00947   0.00211  -0.2025  0.5922  0.0390  -1.0942   0.0000   0.0000   0.0000   0.4790
  -0.100   0.8897   0.00948   0.00212  -0.2025  0.5886  0.0400  -1.1044   0.0000   0.0000   0.0000   0.4759
   0.000   0.9011   0.00950   0.00213  -0.2026  0.5840  0.0413  -1.1146   0.0000   0.0000   0.0000   0.4729


