xflr5 v6.59

 Calculated polar for: WORTMANN FX 63-137 AIRFOIL

 1 1 Reynolds number fixed          Mach number fixed         

 xtrf =   1.000 (top)        1.000 (bottom)
 Mach =   0.000     Re =     1.200 e 6     Ncrit =   9.000

  alpha     CL        CD       CDp       Cm    Top Xtr Bot Xtr   Cpmin    Chinge    XCp    
 ------- -------- --------- --------- -------- ------- ------- -------- --------- ---------
 -17.000  -0.3494   0.19109   0.18937  -0.0301  1.0000  0.0049  -1.9135   0.0000   0.0000   0.0000   0.1331
 -16.900  -0.3479   0.18962   0.18791  -0.0305  1.0000  0.0050  -1.9355   0.0000   0.0000   0.0000   0.1316
 -16.800  -0.3457   0.18837   0.18665  -0.0308  1.0000  0.0051  -1.9369   0.0000   0.0000   0.0000   0.1300
 -16.700  -0.3435   0.18718   0.18546  -0.0312  1.0000  0.0051  -1.9325   0.0000   0.0000   0.0000   0.1284
 -16.600  -0.3411   0.18601   0.18430  -0.0315  1.0000  0.0052  -1.9254   0.0000   0.0000   0.0000   0.1268
 -16.500  -0.3388   0.18487   0.18316  -0.0319  1.0000  0.0052  -1.9166   0.0000   0.0000   0.0000   0.1251
 -16.400  -0.3364   0.18373   0.18203  -0.0322  1.0000  0.0053  -1.9070   0.0000   0.0000   0.0000   0.1235
 -16.300  -0.3340   0.18261   0.18091  -0.0325  1.0000  0.0053  -1.8969   0.0000   0.0000   0.0000   0.1219
 -16.200  -0.3317   0.18149   0.17979  -0.0328  1.0000  0.0054  -1.8865   0.0000   0.0000   0.0000   0.1202
 -16.100  -0.3293   0.18037   0.17868  -0.0332  1.0000  0.0054  -1.8761   0.0000   0.0000   0.0000   0.1186
 -16.000  -0.3269   0.17928   0.17760  -0.0335  1.0000  0.0055  -1.8623   0.0000   0.0000   0.0000   0.1170
 -15.900  -0.3245   0.17820   0.17652  -0.0337  1.0000  0.0055  -1.8486   0.0000   0.0000   0.0000   0.1154
 -15.800  -0.3222   0.17712   0.17544  -0.0340  1.0000  0.0056  -1.8355   0.0000   0.0000   0.0000   0.1138
 -15.700  -0.3198   0.17603   0.17435  -0.0343  1.0000  0.0056  -1.8230   0.0000   0.0000   0.0000   0.1122
 -15.600  -0.3175   0.17494   0.17327  -0.0346  1.0000  0.0057  -1.8112   0.0000   0.0000   0.0000   0.1105
 -15.500  -0.3152   0.17384   0.17217  -0.0348  1.0000  0.0057  -1.8001   0.0000   0.0000   0.0000   0.1089
 -15.400  -0.3130   0.17273   0.17107  -0.0351  1.0000  0.0058  -1.7900   0.0000   0.0000   0.0000   0.1073
 -15.300  -0.3109   0.17158   0.16991  -0.0354  1.0000  0.0058  -1.7858   0.0000   0.0000   0.0000   0.1057
 -15.200  -0.3087   0.17048   0.16882  -0.0356  1.0000  0.0059  -1.7756   0.0000   0.0000   0.0000   0.1042
 -15.100  -0.3066   0.16939   0.16772  -0.0359  1.0000  0.0059  -1.7660   0.0000   0.0000   0.0000   0.1026
 -15.000  -0.3045   0.16829   0.16663  -0.0361  1.0000  0.0060  -1.7570   0.0000   0.0000   0.0000   0.1011
 -14.900  -0.3025   0.16718   0.16553  -0.0363  1.0000  0.0061  -1.7487   0.0000   0.0000   0.0000   0.0997
 -14.800  -0.3005   0.16608   0.16443  -0.0365  1.0000  0.0061  -1.7410   0.0000   0.0000   0.0000   0.0982
 -14.700  -0.2986   0.16498   0.16334  -0.0367  1.0000  0.0062  -1.7339   0.0000   0.0000   0.0000   0.0969
 -13.600  -0.2345   0.14619   0.14452  -0.0538  0.9966  0.0079  -1.7047   0.0000   0.0000   0.0000  -0.0163
 -13.500  -0.2289   0.14416   0.14249  -0.0555  0.9962  0.0082  -1.7294   0.0000   0.0000   0.0000  -0.0303
 -13.400  -0.2241   0.14187   0.14020  -0.0573  0.9959  0.0087  -1.7848   0.0000   0.0000   0.0000  -0.0442
 -13.200  -0.5828   0.06097   0.05895  -0.0959  0.9940  0.0075  -9.6655   0.0000   0.0000   0.0000   0.0615
 -13.100  -0.6126   0.05119   0.04900  -0.1060  0.9917  0.0075  -10.2394   0.0000   0.0000   0.0000   0.0539
 -13.000  -0.6239   0.04545   0.04313  -0.1131  0.9896  0.0074  -10.4792   0.0000   0.0000   0.0000   0.0462
 -12.900  -0.6304   0.04151   0.03910  -0.1181  0.9860  0.0074  -10.6037   0.0000   0.0000   0.0000   0.0407
 -12.800  -0.6318   0.03776   0.03524  -0.1239  0.9836  0.0074  -10.6782   0.0000   0.0000   0.0000   0.0321
 -12.700  -0.6358   0.03532   0.03272  -0.1267  0.9778  0.0074  -10.7211   0.0000   0.0000   0.0000   0.0294
 -12.600  -0.6331   0.03260   0.02991  -0.1313  0.9741  0.0074  -10.7215   0.0000   0.0000   0.0000   0.0215
 -12.500  -0.6328   0.03055   0.02778  -0.1339  0.9664  0.0074  -10.7123   0.0000   0.0000   0.0000   0.0176
 -12.400  -0.6245   0.02827   0.02539  -0.1386  0.9627  0.0074  -10.6516   0.0000   0.0000   0.0000   0.0073
 -12.300  -0.6169   0.02639   0.02341  -0.1424  0.9567  0.0074  -10.5819   0.0000   0.0000   0.0000  -0.0014
 -12.200  -0.6029   0.02450   0.02140  -0.1474  0.9528  0.0074  -10.4647   0.0000   0.0000   0.0000  -0.0152
 -12.100  -0.5844   0.02274   0.01952  -0.1529  0.9503  0.0074  -10.3104   0.0000   0.0000   0.0000  -0.0326
 -12.000  -0.5631   0.02118   0.01783  -0.1585  0.9484  0.0074  -10.1292   0.0000   0.0000   0.0000  -0.0528
 -11.900  -0.5440   0.01996   0.01649  -0.1629  0.9439  0.0074  -9.9544   0.0000   0.0000   0.0000  -0.0711
 -11.800  -0.5230   0.01896   0.01538  -0.1669  0.9406  0.0074  -9.7593   0.0000   0.0000   0.0000  -0.0913
 -11.700  -0.5010   0.01812   0.01444  -0.1707  0.9377  0.0074  -9.5527   0.0000   0.0000   0.0000  -0.1135
 -11.600  -0.4782   0.01738   0.01360  -0.1744  0.9350  0.0074  -9.3397   0.0000   0.0000   0.0000  -0.1382
 -11.500  -0.4571   0.01675   0.01285  -0.1775  0.9312  0.0074  -9.1374   0.0000   0.0000   0.0000  -0.1627
 -11.400  -0.4380   0.01620   0.01221  -0.1801  0.9254  0.0074  -8.9467   0.0000   0.0000   0.0000  -0.1861
 -11.300  -0.4189   0.01571   0.01162  -0.1826  0.9192  0.0074  -8.7554   0.0000   0.0000   0.0000  -0.2115
 -11.200  -0.4020   0.01529   0.01111  -0.1844  0.9125  0.0074  -8.5790   0.0000   0.0000   0.0000  -0.2351
 -11.100  -0.3875   0.01494   0.01067  -0.1857  0.9042  0.0074  -8.4181   0.0000   0.0000   0.0000  -0.2561
 -11.000  -0.3732   0.01462   0.01025  -0.1869  0.8966  0.0073  -8.2580   0.0000   0.0000   0.0000  -0.2784
 -10.900  -0.3610   0.01434   0.00990  -0.1876  0.8897  0.0073  -8.1121   0.0000   0.0000   0.0000  -0.2977
 -10.800  -0.3488   0.01408   0.00956  -0.1882  0.8828  0.0073  -7.9670   0.0000   0.0000   0.0000  -0.3181
 -10.700  -0.3369   0.01385   0.00925  -0.1887  0.8762  0.0073  -7.8236   0.0000   0.0000   0.0000  -0.3393
 -10.600  -0.3256   0.01361   0.00896  -0.1891  0.8704  0.0073  -7.6846   0.0000   0.0000   0.0000  -0.3606
 -10.500  -0.3143   0.01340   0.00868  -0.1894  0.8635  0.0073  -7.5462   0.0000   0.0000   0.0000  -0.3832
 -10.400  -0.3031   0.01321   0.00841  -0.1897  0.8562  0.0073  -7.4092   0.0000   0.0000   0.0000  -0.4070
 -10.300  -0.2919   0.01303   0.00816  -0.1900  0.8503  0.0073  -7.2725   0.0000   0.0000   0.0000  -0.4327
 -10.200  -0.2806   0.01284   0.00792  -0.1903  0.8445  0.0073  -7.1360   0.0000   0.0000   0.0000  -0.4607
 -10.100  -0.2695   0.01267   0.00769  -0.1905  0.8384  0.0073  -7.0012   0.0000   0.0000   0.0000  -0.4904
 -10.000  -0.2587   0.01252   0.00747  -0.1907  0.8320  0.0073  -6.8688   0.0000   0.0000   0.0000  -0.5214
  -9.900  -0.2473   0.01235   0.00726  -0.1909  0.8271  0.0073  -6.7509   0.0000   0.0000   0.0000  -0.5572
  -9.800  -0.2358   0.01218   0.00705  -0.1912  0.8221  0.0072  -6.6349   0.0000   0.0000   0.0000  -0.5973
  -9.700  -0.2245   0.01202   0.00685  -0.1914  0.8163  0.0072  -6.5200   0.0000   0.0000   0.0000  -0.6406
  -9.600  -0.2134   0.01188   0.00667  -0.1916  0.8099  0.0072  -6.4069   0.0000   0.0000   0.0000  -0.6868
  -9.500  -0.2025   0.01174   0.00649  -0.1917  0.8036  0.0072  -6.2943   0.0000   0.0000   0.0000  -0.7372
  -9.400  -0.1909   0.01159   0.00631  -0.1920  0.7993  0.0072  -6.1788   0.0000   0.0000   0.0000  -0.7982
  -9.300  -0.1795   0.01146   0.00613  -0.1922  0.7938  0.0072  -6.0665   0.0000   0.0000   0.0000  -0.8650
  -9.200  -0.1683   0.01135   0.00597  -0.1923  0.7886  0.0072  -5.9544   0.0000   0.0000   0.0000  -0.9398
  -9.100  -0.1572   0.01125   0.00582  -0.1924  0.7833  0.0072  -5.8442   0.0000   0.0000   0.0000  -1.0235
  -9.000  -0.1460   0.01115   0.00567  -0.1925  0.7779  0.0072  -5.7344   0.0000   0.0000   0.0000  -1.1209
  -8.900  -0.1340   0.01102   0.00552  -0.1928  0.7753  0.0073  -5.6216   0.0000   0.0000   0.0000  -1.2448
  -8.800  -0.1221   0.01090   0.00537  -0.1931  0.7723  0.0073  -5.5099   0.0000   0.0000   0.0000  -1.3923
  -8.700  -0.1102   0.01079   0.00523  -0.1933  0.7689  0.0073  -5.3994   0.0000   0.0000   0.0000  -1.5704
  -8.600  -0.0984   0.01069   0.00509  -0.1935  0.7652  0.0074  -5.2900   0.0000   0.0000   0.0000  -1.7899
  -8.500  -0.0867   0.01060   0.00496  -0.1937  0.7614  0.0074  -5.1819   0.0000   0.0000   0.0000  -2.0659
  -8.400  -0.0752   0.01051   0.00483  -0.1939  0.7574  0.0074  -5.0751   0.0000   0.0000   0.0000  -2.4227
  -8.300  -0.0637   0.01044   0.00471  -0.1940  0.7533  0.0074  -4.9697   0.0000   0.0000   0.0000  -2.9028
  -8.200  -0.0522   0.01036   0.00460  -0.1942  0.7496  0.0074  -4.8646   0.0000   0.0000   0.0000  -3.6025
  -8.100  -0.0401   0.01027   0.00448  -0.1944  0.7475  0.0074  -4.7580   0.0000   0.0000   0.0000  -4.7632
  -8.000  -0.0281   0.01018   0.00437  -0.1946  0.7453  0.0075  -4.6523   0.0000   0.0000   0.0000  -6.9118
  -7.500   0.0295   0.00998   0.00396  -0.1951  0.7272  0.0094  -4.1397   0.0000   0.0000   0.0000   7.0727
  -7.300   0.0521   0.01000   0.00383  -0.1950  0.7197  0.0094  -3.9493   0.0000   0.0000   0.0000   4.1073
  -7.200   0.0638   0.00999   0.00378  -0.1951  0.7173  0.0094  -3.8515   0.0000   0.0000   0.0000   3.3971
  -7.100   0.0755   0.00997   0.00373  -0.1952  0.7140  0.0094  -3.7596   0.0000   0.0000   0.0000   2.9096
  -7.000   0.0871   0.00995   0.00367  -0.1953  0.7098  0.0094  -3.6900   0.0000   0.0000   0.0000   2.5551
  -6.900   0.0989   0.00991   0.00360  -0.1954  0.7069  0.0094  -3.6191   0.0000   0.0000   0.0000   2.2812
  -6.800   0.1104   0.00988   0.00354  -0.1955  0.7019  0.0094  -3.5495   0.0000   0.0000   0.0000   2.0701
  -6.700   0.1217   0.00985   0.00348  -0.1956  0.6965  0.0094  -3.4798   0.0000   0.0000   0.0000   1.9007
  -6.600   0.1330   0.00981   0.00342  -0.1956  0.6914  0.0094  -3.4095   0.0000   0.0000   0.0000   1.7597
  -6.500   0.1451   0.00974   0.00334  -0.1959  0.6888  0.0095  -3.3354   0.0000   0.0000   0.0000   1.6354
  -6.300   0.1640   0.01017   0.00442  -0.1952  0.6838  0.0096  -2.9246   0.0000   0.0000   0.0000   1.4700
  -6.200   0.1759   0.01010   0.00433  -0.1954  0.6810  0.0096  -2.8374   0.0000   0.0000   0.0000   1.3880
  -6.100   0.1878   0.01003   0.00424  -0.1956  0.6782  0.0096  -2.7516   0.0000   0.0000   0.0000   1.3165
  -6.000   0.1997   0.00996   0.00415  -0.1958  0.6753  0.0096  -2.6672   0.0000   0.0000   0.0000   1.2536
  -5.900   0.2116   0.00989   0.00405  -0.1960  0.6722  0.0096  -2.5992   0.0000   0.0000   0.0000   1.1976
  -5.800   0.2236   0.00980   0.00394  -0.1962  0.6689  0.0097  -2.5446   0.0000   0.0000   0.0000   1.1475
  -5.500   0.2562   0.01002   0.00396  -0.1959  0.6601  0.0093  -2.2929   0.0000   0.0000   0.0000   1.0309
  -5.400   0.2690   0.00987   0.00384  -0.1963  0.6588  0.0094  -2.2488   0.0000   0.0000   0.0000   0.9951
  -5.200   0.2953   0.00968   0.00301  -0.1967  0.6552  0.0093  -2.5147   0.0000   0.0000   0.0000   0.9295
  -5.100   0.3104   0.00923   0.00271  -0.1979  0.6526  0.0094  -2.4280   0.0000   0.0000   0.0000   0.9001
  -5.000   0.3171   0.00965   0.00355  -0.1971  0.6492  0.0094  -2.0151   0.0000   0.0000   0.0000   0.8836
  -4.900   0.3302   0.00946   0.00338  -0.1976  0.6445  0.0095  -1.9897   0.0000   0.0000   0.0000   0.8597
  -4.800   0.3440   0.00920   0.00313  -0.1983  0.6385  0.0096  -1.9862   0.0000   0.0000   0.0000   0.8370
  -4.700   0.3596   0.00880   0.00269  -0.1995  0.6319  0.0099  -2.0376   0.0000   0.0000   0.0000   0.8146
  -4.600   0.3760   0.00841   0.00202  -0.2006  0.6272  0.0128  -2.2452   0.0000   0.0000   0.0000   0.7928
  -4.500   0.3876   0.00841   0.00202  -0.2007  0.6237  0.0136  -2.1722   0.0000   0.0000   0.0000   0.7765
  -4.400   0.3985   0.00846   0.00210  -0.2006  0.6199  0.0149  -2.0633   0.0000   0.0000   0.0000   0.7617
  -4.300   0.4089   0.00855   0.00222  -0.2004  0.6161  0.0157  -1.9507   0.0000   0.0000   0.0000   0.7480
  -4.200   0.4193   0.00865   0.00238  -0.2003  0.6121  0.0163  -1.8404   0.0000   0.0000   0.0000   0.7351
  -4.100   0.4293   0.00876   0.00255  -0.2000  0.6079  0.0167  -1.7374   0.0000   0.0000   0.0000   0.7230
  -4.000   0.4386   0.00894   0.00280  -0.1996  0.6035  0.0171  -1.6316   0.0000   0.0000   0.0000   0.7117
  -3.900   0.4499   0.00894   0.00280  -0.1997  0.5990  0.0186  -1.5737   0.0000   0.0000   0.0000   0.7002
  -3.800   0.4626   0.00885   0.00268  -0.2000  0.5965  0.0190  -1.5304   0.0000   0.0000   0.0000   0.6884
  -3.700   0.4752   0.00877   0.00258  -0.2004  0.5947  0.0193  -1.4851   0.0000   0.0000   0.0000   0.6773
  -3.600   0.4877   0.00871   0.00250  -0.2007  0.5923  0.0196  -1.4391   0.0000   0.0000   0.0000   0.6668
  -3.500   0.5000   0.00865   0.00242  -0.2009  0.5889  0.0199  -1.3929   0.0000   0.0000   0.0000   0.6568
  -3.400   0.5120   0.00862   0.00236  -0.2011  0.5837  0.0201  -1.3469   0.0000   0.0000   0.0000   0.6475
  -3.300   0.5237   0.00861   0.00231  -0.2012  0.5755  0.0202  -1.3018   0.0000   0.0000   0.0000   0.6387
  -3.200   0.5349   0.00864   0.00227  -0.2013  0.5664  0.0204  -1.2577   0.0000   0.0000   0.0000   0.6304
  -3.100   0.5467   0.00863   0.00222  -0.2014  0.5611  0.0205  -1.2127   0.0000   0.0000   0.0000   0.6223
  -3.000   0.5585   0.00861   0.00218  -0.2016  0.5564  0.0206  -1.1677   0.0000   0.0000   0.0000   0.6145
  -2.900   0.5703   0.00861   0.00214  -0.2017  0.5517  0.0206  -1.1232   0.0000   0.0000   0.0000   0.6070
  -2.800   0.5819   0.00861   0.00210  -0.2018  0.5468  0.0207  -1.0791   0.0000   0.0000   0.0000   0.5999
  -2.700   0.5934   0.00862   0.00207  -0.2019  0.5416  0.0207  -1.0354   0.0000   0.0000   0.0000   0.5930
  -2.600   0.6050   0.00863   0.00204  -0.2020  0.5362  0.0208  -0.9920   0.0000   0.0000   0.0000   0.5865
  -2.500   0.6169   0.00862   0.00200  -0.2021  0.5322  0.0208  -0.9482   0.0000   0.0000   0.0000   0.5800
  -2.400   0.6289   0.00860   0.00197  -0.2023  0.5303  0.0205  -0.9040   0.0000   0.0000   0.0000   0.5738
  -2.300   0.6408   0.00859   0.00193  -0.2024  0.5280  0.0198  -0.8994   0.0000   0.0000   0.0000   0.5679
  -2.200   0.6527   0.00858   0.00190  -0.2026  0.5245  0.0198  -0.9081   0.0000   0.0000   0.0000   0.5621
  -2.100   0.6643   0.00859   0.00188  -0.2027  0.5182  0.0201  -0.9167   0.0000   0.0000   0.0000   0.5566
  -2.000   0.6754   0.00864   0.00187  -0.2027  0.5082  0.0206  -0.9250   0.0000   0.0000   0.0000   0.5514
  -1.900   0.6862   0.00871   0.00187  -0.2026  0.4983  0.0210  -0.9332   0.0000   0.0000   0.0000   0.5464
  -1.800   0.6976   0.00874   0.00186  -0.2027  0.4928  0.0215  -0.9417   0.0000   0.0000   0.0000   0.5415
  -1.700   0.7090   0.00876   0.00186  -0.2027  0.4874  0.0220  -0.9502   0.0000   0.0000   0.0000   0.5367
  -1.600   0.7203   0.00880   0.00185  -0.2027  0.4819  0.0222  -0.9597   0.0000   0.0000   0.0000   0.5321
  -1.500   0.7314   0.00885   0.00185  -0.2027  0.4761  0.0224  -0.9696   0.0000   0.0000   0.0000   0.5276
  -1.400   0.7427   0.00889   0.00185  -0.2028  0.4699  0.0223  -0.9795   0.0000   0.0000   0.0000   0.5233
  -1.300   0.7543   0.00889   0.00185  -0.2029  0.4664  0.0222  -0.9897   0.0000   0.0000   0.0000   0.5190
  -1.200   0.7661   0.00889   0.00184  -0.2030  0.4641  0.0220  -1.0000   0.0000   0.0000   0.0000   0.5149
  -1.100   0.7777   0.00890   0.00184  -0.2031  0.4599  0.0219  -1.0102   0.0000   0.0000   0.0000   0.5109
  -1.000   0.7887   0.00896   0.00186  -0.2031  0.4492  0.0218  -1.0201   0.0000   0.0000   0.0000   0.5071
  -0.900   0.7984   0.00913   0.00191  -0.2028  0.4313  0.0218  -1.0291   0.0000   0.0000   0.0000   0.5035
  -0.800   0.8092   0.00921   0.00194  -0.2027  0.4225  0.0217  -1.0388   0.0000   0.0000   0.0000   0.4999
  -0.700   0.8197   0.00930   0.00198  -0.2026  0.4133  0.0216  -1.0484   0.0000   0.0000   0.0000   0.4964
  -0.600   0.8303   0.00939   0.00201  -0.2026  0.4032  0.0216  -1.0580   0.0000   0.0000   0.0000   0.4929
  -0.500   0.8418   0.00941   0.00202  -0.2026  0.3996  0.0215  -1.0682   0.0000   0.0000   0.0000   0.4895
  -0.400   0.8531   0.00944   0.00204  -0.2027  0.3943  0.0215  -1.0784   0.0000   0.0000   0.0000   0.4862
  -0.300   0.8630   0.00959   0.00211  -0.2024  0.3768  0.0214  -1.0877   0.0000   0.0000   0.0000   0.4831
  -0.200   0.8730   0.00973   0.00217  -0.2022  0.3639  0.0214  -1.0971   0.0000   0.0000   0.0000   0.4801
  -0.100   0.8837   0.00981   0.00222  -0.2022  0.3570  0.0214  -1.1069   0.0000   0.0000   0.0000   0.4770
   0.000   0.8942   0.00990   0.00226  -0.2021  0.3498  0.0214  -1.1166   0.0000   0.0000   0.0000   0.4741


