xflr5 v6.59

 Calculated polar for: WORTMANN FX 63-137 AIRFOIL

 1 1 Reynolds number fixed          Mach number fixed         

 xtrf =   1.000 (top)        1.000 (bottom)
 Mach =   0.000     Re =     4.300 e 6     Ncrit =   9.000

  alpha     CL        CD       CDp       Cm    Top Xtr Bot Xtr   Cpmin    Chinge    XCp    
 ------- -------- --------- --------- -------- ------- ------- -------- --------- ---------
 -15.300  -0.6281   0.04956   0.04721  -0.1441  0.8442  0.0044  -12.6080   0.0000   0.0000   0.0000  -0.0095
 -15.100  -0.6517   0.04274   0.04030  -0.1500  0.8441  0.0044  -12.9318   0.0000   0.0000   0.0000  -0.0089
 -15.000  -0.6606   0.03993   0.03741  -0.1526  0.8349  0.0044  -13.0383   0.0000   0.0000   0.0000  -0.0091
 -14.900  -0.6648   0.03796   0.03537  -0.1544  0.8264  0.0044  -13.0647   0.0000   0.0000   0.0000  -0.0098
 -14.800  -0.6689   0.03601   0.03335  -0.1562  0.8174  0.0044  -13.0882   0.0000   0.0000   0.0000  -0.0106
 -14.000  -0.6674   0.02617   0.02314  -0.1647  0.7650  0.0044  -12.7056   0.0000   0.0000   0.0000  -0.0211
 -13.900  -0.6648   0.02555   0.02249  -0.1649  0.7566  0.0044  -12.6113   0.0000   0.0000   0.0000  -0.0221
 -13.800  -0.6605   0.02489   0.02180  -0.1655  0.7493  0.0044  -12.5028   0.0000   0.0000   0.0000  -0.0245
 -13.700  -0.6530   0.02442   0.02132  -0.1661  0.7463  0.0044  -12.3574   0.0000   0.0000   0.0000  -0.0282
 -13.600  -0.6442   0.02413   0.02104  -0.1665  0.7436  0.0044  -12.1923   0.0000   0.0000   0.0000  -0.0323
 -13.500  -0.6339   0.02410   0.02104  -0.1666  0.7411  0.0045  -12.0010   0.0000   0.0000   0.0000  -0.0366
 -13.400  -0.6180   0.02500   0.02201  -0.1654  0.7389  0.0045  -11.7165   0.0000   0.0000   0.0000  -0.0416
  -7.800   0.0018   0.00880   0.00289  -0.1989  0.3979  0.0063  -4.3940   0.0000   0.0000   0.0000  115.0604
  -7.700   0.0139   0.00875   0.00283  -0.1991  0.3974  0.0063  -4.3036   0.0000   0.0000   0.0000  14.9915
  -7.600   0.0245   0.00882   0.00282  -0.1990  0.3729  0.0063  -4.2320   0.0000   0.0000   0.0000   8.6417
  -7.500   0.0363   0.00880   0.00276  -0.1991  0.3668  0.0062  -4.1563   0.0000   0.0000   0.0000   5.9103
  -7.400   0.0481   0.00878   0.00272  -0.1993  0.3624  0.0062  -4.0810   0.0000   0.0000   0.0000   4.5211
  -7.300   0.0598   0.00877   0.00268  -0.1994  0.3581  0.0062  -4.0063   0.0000   0.0000   0.0000   3.6825
  -7.200   0.0716   0.00875   0.00264  -0.1995  0.3537  0.0061  -3.9320   0.0000   0.0000   0.0000   3.1195
  -7.100   0.0834   0.00873   0.00260  -0.1997  0.3491  0.0061  -3.8578   0.0000   0.0000   0.0000   2.7132
  -7.000   0.0953   0.00871   0.00256  -0.1998  0.3440  0.0060  -3.7837   0.0000   0.0000   0.0000   2.4063
  -6.900   0.1073   0.00868   0.00251  -0.2000  0.3430  0.0060  -3.7092   0.0000   0.0000   0.0000   2.1651
  -6.800   0.1193   0.00865   0.00247  -0.2001  0.3397  0.0060  -3.6356   0.0000   0.0000   0.0000   1.9733
  -6.700   0.1313   0.00862   0.00244  -0.2003  0.3387  0.0059  -3.5623   0.0000   0.0000   0.0000   1.8161
  -6.600   0.1433   0.00859   0.00241  -0.2005  0.3379  0.0059  -3.4895   0.0000   0.0000   0.0000   1.6854
  -6.500   0.1553   0.00856   0.00237  -0.2006  0.3371  0.0059  -3.4170   0.0000   0.0000   0.0000   1.5751
  -6.400   0.1673   0.00854   0.00235  -0.2008  0.3360  0.0058  -3.3447   0.0000   0.0000   0.0000   1.4807
  -6.300   0.1792   0.00851   0.00232  -0.2009  0.3348  0.0058  -3.2725   0.0000   0.0000   0.0000   1.3990
  -6.200   0.1912   0.00849   0.00229  -0.2011  0.3345  0.0058  -3.2000   0.0000   0.0000   0.0000   1.3274
  -6.100   0.2019   0.00857   0.00231  -0.2010  0.3160  0.0058  -3.1319   0.0000   0.0000   0.0000   1.2695
  -6.000   0.2133   0.00859   0.00230  -0.2010  0.3065  0.0058  -3.0611   0.0000   0.0000   0.0000   1.2147
  -5.900   0.2250   0.00860   0.00229  -0.2011  0.3025  0.0058  -2.9888   0.0000   0.0000   0.0000   1.1648
  -5.800   0.2366   0.00861   0.00228  -0.2012  0.2986  0.0057  -2.9159   0.0000   0.0000   0.0000   1.1199
  -5.700   0.2481   0.00862   0.00228  -0.2013  0.2946  0.0057  -2.8423   0.0000   0.0000   0.0000   1.0794
  -5.600   0.2597   0.00863   0.00227  -0.2014  0.2905  0.0057  -2.7653   0.0000   0.0000   0.0000   1.0424
  -5.500   0.2699   0.00875   0.00246  -0.2012  0.2864  0.0057  -2.5979   0.0000   0.0000   0.0000   1.0113
  -5.400   0.2817   0.00875   0.00245  -0.2013  0.2818  0.0056  -2.5309   0.0000   0.0000   0.0000   0.9796
  -5.300   0.2935   0.00873   0.00244  -0.2014  0.2788  0.0056  -2.4662   0.0000   0.0000   0.0000   0.9502
  -5.200   0.3055   0.00871   0.00242  -0.2016  0.2781  0.0055  -2.4035   0.0000   0.0000   0.0000   0.9231
  -5.100   0.3174   0.00869   0.00239  -0.2017  0.2774  0.0055  -2.3426   0.0000   0.0000   0.0000   0.8979
  -5.000   0.3294   0.00867   0.00237  -0.2019  0.2766  0.0055  -2.2834   0.0000   0.0000   0.0000   0.8746
  -4.900   0.3414   0.00865   0.00234  -0.2020  0.2756  0.0054  -2.2258   0.0000   0.0000   0.0000   0.8529
  -4.800   0.3534   0.00863   0.00231  -0.2022  0.2748  0.0054  -2.1695   0.0000   0.0000   0.0000   0.8326
  -4.700   0.3654   0.00860   0.00228  -0.2024  0.2745  0.0053  -2.1146   0.0000   0.0000   0.0000   0.8137
  -4.600   0.3759   0.00871   0.00231  -0.2022  0.2522  0.0053  -2.0649   0.0000   0.0000   0.0000   0.7974
  -4.500   0.3877   0.00871   0.00229  -0.2024  0.2475  0.0053  -2.0135   0.0000   0.0000   0.0000   0.7809
  -4.400   0.3995   0.00871   0.00225  -0.2025  0.2442  0.0052  -1.9644   0.0000   0.0000   0.0000   0.7653
  -4.300   0.4112   0.00871   0.00223  -0.2026  0.2411  0.0052  -1.9157   0.0000   0.0000   0.0000   0.7506
  -4.200   0.4230   0.00871   0.00221  -0.2027  0.2382  0.0052  -1.8689   0.0000   0.0000   0.0000   0.7368
  -4.100   0.4348   0.00871   0.00218  -0.2029  0.2352  0.0052  -1.8241   0.0000   0.0000   0.0000   0.7236
  -4.000   0.4472   0.00867   0.00210  -0.2031  0.2321  0.0051  -1.8213   0.0000   0.0000   0.0000   0.7108
  -3.900   0.4592   0.00865   0.00207  -0.2032  0.2290  0.0051  -1.7874   0.0000   0.0000   0.0000   0.6989
  -3.800   0.4711   0.00865   0.00206  -0.2034  0.2255  0.0051  -1.7464   0.0000   0.0000   0.0000   0.6876
  -3.700   0.4830   0.00864   0.00205  -0.2035  0.2228  0.0052  -1.7045   0.0000   0.0000   0.0000   0.6769
  -3.600   0.4949   0.00863   0.00204  -0.2036  0.2219  0.0052  -1.6653   0.0000   0.0000   0.0000   0.6668
  -3.500   0.5078   0.00855   0.00201  -0.2040  0.2214  0.0138  -1.6810   0.0000   0.0000   0.0000   0.6568
  -3.400   0.5195   0.00855   0.00201  -0.2041  0.2210  0.0143  -1.6181   0.0000   0.0000   0.0000   0.6476
  -3.300   0.5313   0.00855   0.00201  -0.2042  0.2205  0.0146  -1.5553   0.0000   0.0000   0.0000   0.6388
  -3.200   0.5430   0.00856   0.00201  -0.2043  0.2199  0.0149  -1.4920   0.0000   0.0000   0.0000   0.6304
  -3.100   0.5547   0.00856   0.00201  -0.2044  0.2191  0.0151  -1.4283   0.0000   0.0000   0.0000   0.6224
  -3.000   0.5663   0.00857   0.00202  -0.2045  0.2181  0.0154  -1.3638   0.0000   0.0000   0.0000   0.6148
  -2.900   0.5780   0.00858   0.00203  -0.2046  0.2179  0.0156  -1.2989   0.0000   0.0000   0.0000   0.6074
  -2.800   0.5887   0.00867   0.00208  -0.2045  0.2051  0.0158  -1.2375   0.0000   0.0000   0.0000   0.6006
  -2.700   0.5996   0.00874   0.00211  -0.2045  0.1948  0.0159  -1.1778   0.0000   0.0000   0.0000   0.5940
  -2.600   0.6112   0.00876   0.00212  -0.2046  0.1928  0.0160  -1.1208   0.0000   0.0000   0.0000   0.5874
  -2.500   0.6228   0.00877   0.00212  -0.2047  0.1908  0.0161  -1.0709   0.0000   0.0000   0.0000   0.5811
  -2.400   0.6345   0.00878   0.00211  -0.2048  0.1885  0.0159  -1.0369   0.0000   0.0000   0.0000   0.5750
  -2.300   0.6453   0.00887   0.00212  -0.2047  0.1693  0.0155  -1.0165   0.0000   0.0000   0.0000   0.5693
  -2.200   0.6570   0.00888   0.00212  -0.2048  0.1688  0.0156  -0.9621   0.0000   0.0000   0.0000   0.5636
  -2.100   0.6686   0.00889   0.00213  -0.2049  0.1684  0.0158  -0.9269   0.0000   0.0000   0.0000   0.5581
  -2.000   0.6802   0.00891   0.00214  -0.2050  0.1678  0.0159  -0.9357   0.0000   0.0000   0.0000   0.5528
  -1.900   0.6918   0.00892   0.00215  -0.2051  0.1672  0.0160  -0.9444   0.0000   0.0000   0.0000   0.5477
  -1.800   0.7034   0.00893   0.00216  -0.2051  0.1663  0.0162  -0.9532   0.0000   0.0000   0.0000   0.5427
  -1.700   0.7150   0.00894   0.00217  -0.2052  0.1660  0.0163  -0.9620   0.0000   0.0000   0.0000   0.5379
  -1.600   0.7255   0.00905   0.00223  -0.2051  0.1518  0.0163  -0.9721   0.0000   0.0000   0.0000   0.5334
  -1.500   0.7366   0.00911   0.00226  -0.2051  0.1455  0.0164  -0.9824   0.0000   0.0000   0.0000   0.5290
  -1.400   0.7481   0.00913   0.00228  -0.2052  0.1440  0.0165  -0.9927   0.0000   0.0000   0.0000   0.5246
  -1.300   0.7595   0.00916   0.00229  -0.2052  0.1425  0.0166  -1.0030   0.0000   0.0000   0.0000   0.5204
  -1.200   0.7709   0.00919   0.00231  -0.2053  0.1410  0.0166  -1.0133   0.0000   0.0000   0.0000   0.5163
  -1.100   0.7823   0.00922   0.00232  -0.2053  0.1394  0.0167  -1.0235   0.0000   0.0000   0.0000   0.5123
  -1.000   0.7937   0.00925   0.00234  -0.2054  0.1379  0.0167  -1.0338   0.0000   0.0000   0.0000   0.5084
  -0.900   0.8051   0.00927   0.00236  -0.2054  0.1364  0.0167  -1.0441   0.0000   0.0000   0.0000   0.5047
  -0.800   0.8166   0.00930   0.00237  -0.2055  0.1349  0.0168  -1.0544   0.0000   0.0000   0.0000   0.5010
  -0.700   0.8280   0.00933   0.00239  -0.2055  0.1324  0.0168  -1.0647   0.0000   0.0000   0.0000   0.4974
  -0.600   0.8393   0.00936   0.00241  -0.2056  0.1284  0.0168  -1.0750   0.0000   0.0000   0.0000   0.4940
  -0.500   0.8508   0.00938   0.00243  -0.2056  0.1248  0.0169  -1.0854   0.0000   0.0000   0.0000   0.4906
  -0.400   0.8622   0.00941   0.00245  -0.2057  0.1239  0.0170  -1.0958   0.0000   0.0000   0.0000   0.4873
  -0.200   0.8852   0.00944   0.00247  -0.2058  0.1235  0.0184  -1.1167   0.0000   0.0000   0.0000   0.4810
  -0.100   0.8967   0.00946   0.00249  -0.2059  0.1232  0.0185  -1.1271   0.0000   0.0000   0.0000   0.4779
   0.000   0.9081   0.00949   0.00251  -0.2059  0.1229  0.0185  -1.1375   0.0000   0.0000   0.0000   0.4749


