xflr5 v6.59

 Calculated polar for: WORTMANN FX 63-137 AIRFOIL

 1 1 Reynolds number fixed          Mach number fixed         

 xtrf =   1.000 (top)        1.000 (bottom)
 Mach =   0.000     Re =     1.900 e 6     Ncrit =   9.000

  alpha     CL        CD       CDp       Cm    Top Xtr Bot Xtr   Cpmin    Chinge    XCp    
 ------- -------- --------- --------- -------- ------- ------- -------- --------- ---------
 -13.800  -0.4432   0.08900   0.08748  -0.0834  0.9937  0.0071  -7.6164   0.0000   0.0000   0.0000   0.0319
 -13.700  -0.4067   0.09276   0.09128  -0.0826  0.9921  0.0072  -7.0229   0.0000   0.0000   0.0000   0.0156
 -13.600  -0.3874   0.09368   0.09221  -0.0833  0.9909  0.0072  -6.7292   0.0000   0.0000   0.0000   0.0030
 -13.500  -0.3788   0.09353   0.09206  -0.0835  0.9890  0.0072  -6.5868   0.0000   0.0000   0.0000  -0.0027
 -13.400  -0.3349   0.10108   0.09968  -0.0789  0.9801  0.0074  -5.7098   0.0000   0.0000   0.0000  -0.0199
 -13.300  -0.3159   0.10239   0.10100  -0.0790  0.9699  0.0075  -5.3852   0.0000   0.0000   0.0000  -0.0355
 -13.200  -0.2643   0.10128   0.09983  -0.0888  0.9561  0.0077  -4.9154   0.0000   0.0000   0.0000  -0.1278
 -13.100  -0.2126   0.09915   0.09762  -0.1006  0.9451  0.0078  -4.5236   0.0000   0.0000   0.0000  -0.2750
 -13.000  -0.1590   0.09703   0.09516  -0.1132  0.8941  0.0078  -4.1431   0.0000   0.0000   0.0000  -0.5314
 -12.900  -0.1522   0.09683   0.09485  -0.1134  0.8708  0.0079  -4.0312   0.0000   0.0000   0.0000  -0.5669
 -12.800  -0.1460   0.09677   0.09471  -0.1133  0.8532  0.0079  -3.9145   0.0000   0.0000   0.0000  -0.6003
 -12.700  -0.1384   0.09686   0.09475  -0.1133  0.8422  0.0080  -3.7761   0.0000   0.0000   0.0000  -0.6455
 -12.600  -0.1292   0.09740   0.09524  -0.1130  0.8322  0.0081  -3.5975   0.0000   0.0000   0.0000  -0.7055
 -12.400  -0.5225   0.01893   0.01570  -0.1782  0.9165  0.0068  -10.2450   0.0000   0.0000   0.0000  -0.1154
 -12.300  -0.5081   0.01803   0.01465  -0.1813  0.8983  0.0068  -10.0936   0.0000   0.0000   0.0000  -0.1314
 -12.200  -0.4970   0.01737   0.01386  -0.1830  0.8846  0.0068  -9.9591   0.0000   0.0000   0.0000  -0.1429
 -12.100  -0.4878   0.01688   0.01326  -0.1838  0.8730  0.0068  -9.8324   0.0000   0.0000   0.0000  -0.1516
 -12.000  -0.4784   0.01642   0.01271  -0.1845  0.8610  0.0068  -9.7027   0.0000   0.0000   0.0000  -0.1606
 -11.900  -0.4693   0.01603   0.01221  -0.1849  0.8501  0.0068  -9.5747   0.0000   0.0000   0.0000  -0.1691
 -11.800  -0.4594   0.01564   0.01173  -0.1855  0.8413  0.0068  -9.4408   0.0000   0.0000   0.0000  -0.1790
 -11.700  -0.4499   0.01529   0.01129  -0.1859  0.8328  0.0068  -9.3103   0.0000   0.0000   0.0000  -0.1884
 -11.600  -0.4396   0.01494   0.01086  -0.1864  0.8264  0.0068  -9.1724   0.0000   0.0000   0.0000  -0.1995
 -11.500  -0.4289   0.01461   0.01046  -0.1869  0.8194  0.0068  -9.0322   0.0000   0.0000   0.0000  -0.2115
 -11.400  -0.4187   0.01432   0.01009  -0.1872  0.8110  0.0068  -8.8952   0.0000   0.0000   0.0000  -0.2232
 -11.300  -0.4086   0.01405   0.00974  -0.1875  0.8032  0.0068  -8.7587   0.0000   0.0000   0.0000  -0.2352
 -11.200  -0.3974   0.01377   0.00940  -0.1879  0.7985  0.0067  -8.6157   0.0000   0.0000   0.0000  -0.2495
 -11.100  -0.3863   0.01351   0.00908  -0.1883  0.7937  0.0067  -8.4733   0.0000   0.0000   0.0000  -0.2646
 -11.000  -0.3753   0.01327   0.00878  -0.1887  0.7887  0.0067  -8.3320   0.0000   0.0000   0.0000  -0.2801
 -10.900  -0.3644   0.01305   0.00849  -0.1889  0.7833  0.0067  -8.1922   0.0000   0.0000   0.0000  -0.2962
 -10.800  -0.3534   0.01284   0.00822  -0.1892  0.7777  0.0067  -8.0517   0.0000   0.0000   0.0000  -0.3137
 -10.700  -0.3416   0.01261   0.00795  -0.1897  0.7756  0.0067  -7.9065   0.0000   0.0000   0.0000  -0.3341
 -10.600  -0.3298   0.01240   0.00769  -0.1901  0.7726  0.0067  -7.7622   0.0000   0.0000   0.0000  -0.3557
 -10.500  -0.3181   0.01220   0.00745  -0.1904  0.7687  0.0066  -7.6193   0.0000   0.0000   0.0000  -0.3787
 -10.400  -0.3065   0.01202   0.00722  -0.1907  0.7638  0.0066  -7.4781   0.0000   0.0000   0.0000  -0.4028
 -10.300  -0.2953   0.01186   0.00700  -0.1909  0.7580  0.0066  -7.3394   0.0000   0.0000   0.0000  -0.4280
 -10.200  -0.2842   0.01172   0.00679  -0.1911  0.7514  0.0066  -7.2027   0.0000   0.0000   0.0000  -0.4545
 -10.100  -0.2725   0.01156   0.00659  -0.1914  0.7477  0.0066  -7.0627   0.0000   0.0000   0.0000  -0.4853
 -10.000  -0.2607   0.01140   0.00639  -0.1917  0.7444  0.0066  -6.9229   0.0000   0.0000   0.0000  -0.5194
  -9.900  -0.2489   0.01125   0.00620  -0.1920  0.7410  0.0066  -6.7842   0.0000   0.0000   0.0000  -0.5565
  -9.800  -0.2372   0.01111   0.00602  -0.1923  0.7375  0.0065  -6.6466   0.0000   0.0000   0.0000  -0.5970
  -9.700  -0.2255   0.01097   0.00584  -0.1926  0.7341  0.0065  -6.5137   0.0000   0.0000   0.0000  -0.6416
  -9.600  -0.2138   0.01084   0.00568  -0.1928  0.7309  0.0065  -6.3976   0.0000   0.0000   0.0000  -0.6910
  -9.500  -0.2020   0.01071   0.00551  -0.1931  0.7276  0.0065  -6.2819   0.0000   0.0000   0.0000  -0.7464
  -9.400  -0.1901   0.01058   0.00536  -0.1933  0.7246  0.0065  -6.1664   0.0000   0.0000   0.0000  -0.8094
  -9.300  -0.1782   0.01044   0.00518  -0.1936  0.7216  0.0065  -6.0523   0.0000   0.0000   0.0000  -0.8813
  -9.200  -0.1660   0.01030   0.00503  -0.1940  0.7205  0.0064  -5.9358   0.0000   0.0000   0.0000  -0.9661
  -9.100  -0.1537   0.01016   0.00488  -0.1943  0.7196  0.0064  -5.8196   0.0000   0.0000   0.0000  -1.0649
  -9.000  -0.1414   0.01002   0.00474  -0.1947  0.7186  0.0064  -5.7043   0.0000   0.0000   0.0000  -1.1804
  -8.900  -0.1292   0.00990   0.00461  -0.1950  0.7173  0.0064  -5.5901   0.0000   0.0000   0.0000  -1.3173
  -8.800  -0.1171   0.00979   0.00448  -0.1953  0.7150  0.0064  -5.4771   0.0000   0.0000   0.0000  -1.4813
  -8.700  -0.1051   0.00970   0.00436  -0.1955  0.7110  0.0064  -5.3657   0.0000   0.0000   0.0000  -1.6800
  -8.600  -0.0935   0.00962   0.00424  -0.1957  0.7038  0.0064  -5.2570   0.0000   0.0000   0.0000  -1.9202
  -8.500  -0.0825   0.00958   0.00413  -0.1957  0.6937  0.0064  -5.1520   0.0000   0.0000   0.0000  -2.2090
  -8.400  -0.0708   0.00951   0.00403  -0.1958  0.6872  0.0064  -5.0448   0.0000   0.0000   0.0000  -2.6133
  -8.300  -0.0591   0.00945   0.00392  -0.1960  0.6813  0.0063  -4.9382   0.0000   0.0000   0.0000  -3.1805
  -8.200  -0.0476   0.00940   0.00383  -0.1961  0.6751  0.0063  -4.8331   0.0000   0.0000   0.0000  -4.0134
  -8.100  -0.0361   0.00935   0.00373  -0.1962  0.6685  0.0063  -4.7292   0.0000   0.0000   0.0000  -5.3635
  -8.000  -0.0245   0.00930   0.00364  -0.1964  0.6618  0.0063  -4.6254   0.0000   0.0000   0.0000  -8.0291
  -7.900  -0.0124   0.00923   0.00355  -0.1966  0.6594  0.0063  -4.5203   0.0000   0.0000   0.0000  -16.0980
  -7.800  -0.0003   0.00915   0.00346  -0.1968  0.6576  0.0063  -4.4159   0.0000   0.0000   0.0000  -742.7816
  -7.700   0.0119   0.00908   0.00338  -0.1970  0.6558  0.0063  -4.3124   0.0000   0.0000   0.0000  17.3978
  -7.600   0.0239   0.00902   0.00330  -0.1973  0.6532  0.0064  -4.2100   0.0000   0.0000   0.0000   8.7479
  -7.500   0.0359   0.00896   0.00322  -0.1975  0.6495  0.0064  -4.1089   0.0000   0.0000   0.0000   5.9164
  -7.400   0.0477   0.00892   0.00315  -0.1976  0.6435  0.0064  -4.0263   0.0000   0.0000   0.0000   4.5207
  -7.300   0.0591   0.00890   0.00308  -0.1977  0.6356  0.0064  -3.9526   0.0000   0.0000   0.0000   3.6949
  -7.200   0.0706   0.00888   0.00302  -0.1978  0.6286  0.0064  -3.8789   0.0000   0.0000   0.0000   3.1315
  -7.100   0.0825   0.00883   0.00295  -0.1980  0.6245  0.0064  -3.8044   0.0000   0.0000   0.0000   2.7176
  -7.000   0.0944   0.00879   0.00289  -0.1981  0.6205  0.0065  -3.7304   0.0000   0.0000   0.0000   2.4083
  -6.900   0.1064   0.00875   0.00281  -0.1983  0.6180  0.0065  -3.6562   0.0000   0.0000   0.0000   2.1661
  -6.800   0.1182   0.00871   0.00276  -0.1984  0.6140  0.0064  -3.5833   0.0000   0.0000   0.0000   1.9752
  -6.700   0.1299   0.00869   0.00271  -0.1986  0.6096  0.0064  -3.5108   0.0000   0.0000   0.0000   1.8198
  -6.600   0.1416   0.00866   0.00266  -0.1987  0.6049  0.0064  -3.4385   0.0000   0.0000   0.0000   1.6903
  -6.500   0.1534   0.00863   0.00261  -0.1988  0.5998  0.0064  -3.3659   0.0000   0.0000   0.0000   1.5800
  -6.400   0.1654   0.00860   0.00256  -0.1990  0.5969  0.0064  -3.2926   0.0000   0.0000   0.0000   1.4841
  -6.300   0.1774   0.00855   0.00251  -0.1992  0.5954  0.0064  -3.2186   0.0000   0.0000   0.0000   1.4008
  -6.200   0.1894   0.00852   0.00247  -0.1994  0.5936  0.0064  -3.1429   0.0000   0.0000   0.0000   1.3284
  -6.100   0.2013   0.00849   0.00244  -0.1995  0.5909  0.0064  -3.0629   0.0000   0.0000   0.0000   1.2650
  -6.000   0.2129   0.00849   0.00244  -0.1996  0.5860  0.0064  -2.9752   0.0000   0.0000   0.0000   1.2098
  -5.900   0.2234   0.00857   0.00253  -0.1995  0.5768  0.0064  -2.8565   0.0000   0.0000   0.0000   1.1635
  -5.800   0.2336   0.00868   0.00263  -0.1993  0.5650  0.0064  -2.7513   0.0000   0.0000   0.0000   1.1224
  -5.700   0.2451   0.00869   0.00263  -0.1994  0.5597  0.0064  -2.6772   0.0000   0.0000   0.0000   1.0815
  -5.600   0.2567   0.00869   0.00261  -0.1995  0.5549  0.0064  -2.6075   0.0000   0.0000   0.0000   1.0440
  -5.500   0.2682   0.00869   0.00260  -0.1995  0.5498  0.0064  -2.5402   0.0000   0.0000   0.0000   1.0098
  -5.400   0.2797   0.00869   0.00258  -0.1996  0.5440  0.0064  -2.4752   0.0000   0.0000   0.0000   0.9787
  -5.300   0.2912   0.00870   0.00255  -0.1997  0.5381  0.0064  -2.4116   0.0000   0.0000   0.0000   0.9498
  -5.200   0.3030   0.00868   0.00253  -0.1998  0.5328  0.0064  -2.3489   0.0000   0.0000   0.0000   0.9228
  -5.100   0.3150   0.00865   0.00249  -0.2000  0.5311  0.0064  -2.2870   0.0000   0.0000   0.0000   0.8975
  -5.000   0.3270   0.00862   0.00246  -0.2002  0.5292  0.0064  -2.2264   0.0000   0.0000   0.0000   0.8740
  -4.900   0.3389   0.00859   0.00243  -0.2003  0.5264  0.0064  -2.1672   0.0000   0.0000   0.0000   0.8522
  -4.800   0.3507   0.00858   0.00240  -0.2005  0.5215  0.0064  -2.1094   0.0000   0.0000   0.0000   0.8321
  -4.700   0.3618   0.00862   0.00239  -0.2005  0.5093  0.0064  -2.0544   0.0000   0.0000   0.0000   0.8140
  -4.600   0.3727   0.00867   0.00238  -0.2005  0.4961  0.0065  -2.0005   0.0000   0.0000   0.0000   0.7972
  -4.500   0.3843   0.00868   0.00236  -0.2006  0.4902  0.0065  -1.9457   0.0000   0.0000   0.0000   0.7807
  -4.400   0.3957   0.00870   0.00233  -0.2006  0.4840  0.0066  -1.8916   0.0000   0.0000   0.0000   0.7654
  -4.300   0.4070   0.00872   0.00232  -0.2007  0.4779  0.0066  -1.8371   0.0000   0.0000   0.0000   0.7509
  -4.200   0.4184   0.00875   0.00232  -0.2007  0.4712  0.0068  -1.7812   0.0000   0.0000   0.0000   0.7372
  -4.100   0.4298   0.00877   0.00233  -0.2007  0.4668  0.0070  -1.7197   0.0000   0.0000   0.0000   0.7242
  -4.000   0.4379   0.00906   0.00247  -0.1999  0.4653  0.0089  -1.6327   0.0000   0.0000   0.0000   0.7131
  -3.900   0.4575   0.00844   0.00196  -0.2019  0.4628  0.0152  -1.8021   0.0000   0.0000   0.0000   0.6975
  -3.800   0.4685   0.00850   0.00203  -0.2019  0.4591  0.0158  -1.7061   0.0000   0.0000   0.0000   0.6868
  -3.700   0.4796   0.00854   0.00210  -0.2019  0.4558  0.0162  -1.6142   0.0000   0.0000   0.0000   0.6765
  -3.600   0.4890   0.00871   0.00222  -0.2016  0.4336  0.0165  -1.5344   0.0000   0.0000   0.0000   0.6675
  -3.500   0.4997   0.00878   0.00232  -0.2015  0.4283  0.0168  -1.4513   0.0000   0.0000   0.0000   0.6582
  -3.000   0.5571   0.00886   0.00232  -0.2020  0.4023  0.0209  -1.1766   0.0000   0.0000   0.0000   0.6161
  -2.900   0.5693   0.00883   0.00227  -0.2022  0.4011  0.0208  -1.1316   0.0000   0.0000   0.0000   0.6085
  -2.800   0.5814   0.00881   0.00223  -0.2024  0.3996  0.0207  -1.0869   0.0000   0.0000   0.0000   0.6012
  -2.700   0.5934   0.00879   0.00219  -0.2025  0.3976  0.0206  -1.0426   0.0000   0.0000   0.0000   0.5942
  -2.600   0.6053   0.00878   0.00216  -0.2027  0.3943  0.0205  -0.9987   0.0000   0.0000   0.0000   0.5875
  -2.500   0.6172   0.00877   0.00213  -0.2028  0.3911  0.0202  -0.9549   0.0000   0.0000   0.0000   0.5810
  -2.400   0.6271   0.00892   0.00217  -0.2026  0.3696  0.0199  -0.9147   0.0000   0.0000   0.0000   0.5753
  -2.300   0.6387   0.00894   0.00215  -0.2027  0.3654  0.0192  -0.9007   0.0000   0.0000   0.0000   0.5694
  -2.200   0.6503   0.00896   0.00214  -0.2028  0.3610  0.0192  -0.9095   0.0000   0.0000   0.0000   0.5637
  -2.100   0.6618   0.00898   0.00213  -0.2029  0.3567  0.0192  -0.9182   0.0000   0.0000   0.0000   0.5581
  -2.000   0.6730   0.00903   0.00212  -0.2029  0.3506  0.0191  -0.9269   0.0000   0.0000   0.0000   0.5529
  -1.900   0.6842   0.00908   0.00212  -0.2029  0.3418  0.0191  -0.9356   0.0000   0.0000   0.0000   0.5478
  -1.800   0.6959   0.00909   0.00211  -0.2030  0.3379  0.0191  -0.9447   0.0000   0.0000   0.0000   0.5428
  -1.700   0.7076   0.00910   0.00210  -0.2031  0.3349  0.0190  -0.9542   0.0000   0.0000   0.0000   0.5379
  -1.600   0.7189   0.00913   0.00211  -0.2031  0.3277  0.0190  -0.9647   0.0000   0.0000   0.0000   0.5333
  -1.500   0.7281   0.00935   0.00219  -0.2028  0.3025  0.0191  -0.9754   0.0000   0.0000   0.0000   0.5291
  -1.400   0.7387   0.00944   0.00221  -0.2027  0.2930  0.0193  -0.9803   0.0000   0.0000   0.0000   0.5248
  -1.300   0.7496   0.00952   0.00223  -0.2027  0.2827  0.0196  -0.9902   0.0000   0.0000   0.0000   0.5206
  -1.200   0.7611   0.00954   0.00223  -0.2027  0.2779  0.0199  -1.0007   0.0000   0.0000   0.0000   0.5164
  -1.100   0.7727   0.00955   0.00223  -0.2028  0.2759  0.0202  -1.0114   0.0000   0.0000   0.0000   0.5123
  -1.000   0.7842   0.00957   0.00224  -0.2029  0.2731  0.0204  -1.0224   0.0000   0.0000   0.0000   0.5084
  -0.900   0.7959   0.00958   0.00224  -0.2030  0.2721  0.0205  -1.0330   0.0000   0.0000   0.0000   0.5046
  -0.800   0.8054   0.00977   0.00233  -0.2027  0.2498  0.0205  -1.0474   0.0000   0.0000   0.0000   0.5011
  -0.700   0.8165   0.00982   0.00235  -0.2027  0.2459  0.0203  -1.0570   0.0000   0.0000   0.0000   0.4975
  -0.600   0.8277   0.00987   0.00238  -0.2027  0.2422  0.0202  -1.0653   0.0000   0.0000   0.0000   0.4940
  -0.500   0.8388   0.00992   0.00241  -0.2027  0.2385  0.0201  -1.0721   0.0000   0.0000   0.0000   0.4906
  -0.400   0.8498   0.00997   0.00243  -0.2027  0.2347  0.0200  -1.0786   0.0000   0.0000   0.0000   0.4873
  -0.300   0.8609   0.01003   0.00246  -0.2027  0.2301  0.0199  -1.0852   0.0000   0.0000   0.0000   0.4841
  -0.200   0.8720   0.01008   0.00249  -0.2027  0.2233  0.0198  -1.0926   0.0000   0.0000   0.0000   0.4809
  -0.100   0.8833   0.01011   0.00251  -0.2027  0.2209  0.0198  -1.1027   0.0000   0.0000   0.0000   0.4778
   0.000   0.8946   0.01014   0.00254  -0.2028  0.2184  0.0197  -1.1133   0.0000   0.0000   0.0000   0.4748


