xflr5 v6.59

 Calculated polar for: WORTMANN FX 63-137 AIRFOIL

 1 1 Reynolds number fixed          Mach number fixed         

 xtrf =   1.000 (top)        1.000 (bottom)
 Mach =   0.000     Re =     0.400 e 6     Ncrit =   9.000

  alpha     CL        CD       CDp       Cm    Top Xtr Bot Xtr   Cpmin    Chinge    XCp    
 ------- -------- --------- --------- -------- ------- ------- -------- --------- ---------
 -20.000  -0.4194   0.22997   0.22686  -0.0182  1.0000  0.0114  -1.3435   0.0000   0.0000   0.0000   0.1757
 -19.900  -0.4164   0.22893   0.22583  -0.0187  1.0000  0.0115  -1.3345   0.0000   0.0000   0.0000   0.1742
 -19.800  -0.4133   0.22790   0.22480  -0.0192  1.0000  0.0116  -1.3261   0.0000   0.0000   0.0000   0.1726
 -19.700  -0.4102   0.22688   0.22378  -0.0198  1.0000  0.0117  -1.3181   0.0000   0.0000   0.0000   0.1710
 -19.600  -0.4072   0.22585   0.22276  -0.0203  1.0000  0.0119  -1.3105   0.0000   0.0000   0.0000   0.1694
 -19.500  -0.4041   0.22483   0.22174  -0.0208  1.0000  0.0120  -1.3041   0.0000   0.0000   0.0000   0.1677
 -19.400  -0.4011   0.22381   0.22072  -0.0213  1.0000  0.0121  -1.2982   0.0000   0.0000   0.0000   0.1661
 -19.300  -0.3981   0.22278   0.21970  -0.0218  1.0000  0.0123  -1.2927   0.0000   0.0000   0.0000   0.1644
 -19.200  -0.3951   0.22175   0.21867  -0.0223  1.0000  0.0124  -1.2876   0.0000   0.0000   0.0000   0.1627
 -19.100  -0.3921   0.22071   0.21763  -0.0228  1.0000  0.0125  -1.2829   0.0000   0.0000   0.0000   0.1610
 -19.000  -0.3891   0.21965   0.21658  -0.0233  1.0000  0.0127  -1.2786   0.0000   0.0000   0.0000   0.1592
 -18.900  -0.3861   0.21857   0.21551  -0.0238  1.0000  0.0129  -1.2749   0.0000   0.0000   0.0000   0.1575
 -18.800  -0.3832   0.21747   0.21441  -0.0243  1.0000  0.0130  -1.2715   0.0000   0.0000   0.0000   0.1557
 -18.700  -0.3803   0.21633   0.21327  -0.0248  1.0000  0.0132  -1.2687   0.0000   0.0000   0.0000   0.1540
 -18.600  -0.3774   0.21518   0.21213  -0.0253  1.0000  0.0134  -1.2663   0.0000   0.0000   0.0000   0.1522
 -18.500  -0.3746   0.21403   0.21098  -0.0258  1.0000  0.0136  -1.2642   0.0000   0.0000   0.0000   0.1504
 -18.400  -0.3717   0.21287   0.20982  -0.0262  1.0000  0.0138  -1.2627   0.0000   0.0000   0.0000   0.1486
 -18.300  -0.3689   0.21170   0.20866  -0.0267  1.0000  0.0140  -1.2615   0.0000   0.0000   0.0000   0.1468
 -18.200  -0.3661   0.21054   0.20750  -0.0272  1.0000  0.0143  -1.2609   0.0000   0.0000   0.0000   0.1449
 -18.100  -0.3633   0.20937   0.20634  -0.0276  1.0000  0.0145  -1.2609   0.0000   0.0000   0.0000   0.1430
 -18.000  -0.3604   0.20820   0.20517  -0.0281  1.0000  0.0148  -1.2617   0.0000   0.0000   0.0000   0.1411
 -17.900  -0.3576   0.20703   0.20400  -0.0286  1.0000  0.0150  -1.2633   0.0000   0.0000   0.0000   0.1392
 -17.800  -0.3548   0.20585   0.20284  -0.0290  1.0000  0.0153  -1.2662   0.0000   0.0000   0.0000   0.1372
 -17.700  -0.3519   0.20469   0.20168  -0.0295  1.0000  0.0156  -1.2708   0.0000   0.0000   0.0000   0.1351
 -17.600  -0.3490   0.20354   0.20053  -0.0300  1.0000  0.0159  -1.2774   0.0000   0.0000   0.0000   0.1330
 -17.500  -0.3461   0.20242   0.19941  -0.0305  1.0000  0.0161  -1.2857   0.0000   0.0000   0.0000   0.1307
 -17.400  -0.3433   0.20131   0.19831  -0.0310  1.0000  0.0163  -1.2948   0.0000   0.0000   0.0000   0.1284
 -17.300  -0.3405   0.20021   0.19722  -0.0316  1.0000  0.0165  -1.3038   0.0000   0.0000   0.0000   0.1261
 -17.200  -0.3379   0.19912   0.19613  -0.0321  1.0000  0.0166  -1.3124   0.0000   0.0000   0.0000   0.1238
 -17.100  -0.3353   0.19802   0.19504  -0.0326  1.0000  0.0166  -1.3207   0.0000   0.0000   0.0000   0.1215
 -17.000  -0.3328   0.19692   0.19394  -0.0331  1.0000  0.0167  -1.3287   0.0000   0.0000   0.0000   0.1193
 -16.900  -0.3303   0.19580   0.19283  -0.0336  1.0000  0.0168  -1.3365   0.0000   0.0000   0.0000   0.1171
 -16.800  -0.3279   0.19468   0.19172  -0.0340  1.0000  0.0168  -1.3442   0.0000   0.0000   0.0000   0.1149
 -16.700  -0.3255   0.19355   0.19059  -0.0345  1.0000  0.0169  -1.3518   0.0000   0.0000   0.0000   0.1127
 -16.600  -0.3232   0.19242   0.18946  -0.0349  1.0000  0.0169  -1.3594   0.0000   0.0000   0.0000   0.1105
 -16.500  -0.3209   0.19127   0.18833  -0.0354  1.0000  0.0169  -1.3671   0.0000   0.0000   0.0000   0.1084
 -16.400  -0.3187   0.19012   0.18718  -0.0358  1.0000  0.0169  -1.3748   0.0000   0.0000   0.0000   0.1063
 -16.300  -0.3165   0.18897   0.18603  -0.0362  1.0000  0.0170  -1.3826   0.0000   0.0000   0.0000   0.1041
 -16.200  -0.3143   0.18780   0.18487  -0.0367  1.0000  0.0170  -1.3905   0.0000   0.0000   0.0000   0.1020
 -16.100  -0.3121   0.18663   0.18371  -0.0371  1.0000  0.0170  -1.3985   0.0000   0.0000   0.0000   0.0999
 -16.000  -0.3100   0.18546   0.18254  -0.0374  1.0000  0.0170  -1.4066   0.0000   0.0000   0.0000   0.0979
 -15.900  -0.3080   0.18428   0.18137  -0.0378  1.0000  0.0170  -1.4148   0.0000   0.0000   0.0000   0.0958
 -15.800  -0.3059   0.18309   0.18019  -0.0382  1.0000  0.0171  -1.4232   0.0000   0.0000   0.0000   0.0938
 -15.700  -0.3039   0.18189   0.17897  -0.0386  1.0000  0.0171  -1.4311   0.0000   0.0000   0.0000   0.0918
 -15.600  -0.3020   0.18070   0.17778  -0.0389  1.0000  0.0171  -1.4397   0.0000   0.0000   0.0000   0.0898
 -15.500  -0.2999   0.17949   0.17659  -0.0393  1.0000  0.0171  -1.4468   0.0000   0.0000   0.0000   0.0878
 -15.400  -0.2979   0.17829   0.17539  -0.0396  1.0000  0.0171  -1.4541   0.0000   0.0000   0.0000   0.0858
 -15.300  -0.2959   0.17708   0.17418  -0.0399  1.0000  0.0171  -1.4616   0.0000   0.0000   0.0000   0.0839
 -15.200  -0.2940   0.17586   0.17297  -0.0402  1.0000  0.0171  -1.4693   0.0000   0.0000   0.0000   0.0820
 -15.100  -0.2921   0.17464   0.17176  -0.0405  1.0000  0.0171  -1.4773   0.0000   0.0000   0.0000   0.0801
 -15.000  -0.2902   0.17342   0.17055  -0.0407  1.0000  0.0171  -1.4853   0.0000   0.0000   0.0000   0.0783
 -14.900  -0.2883   0.17220   0.16934  -0.0410  1.0000  0.0171  -1.4933   0.0000   0.0000   0.0000   0.0765
 -14.800  -0.2865   0.17097   0.16812  -0.0413  1.0000  0.0172  -1.5013   0.0000   0.0000   0.0000   0.0747
 -14.700  -0.2847   0.16974   0.16690  -0.0415  1.0000  0.0172  -1.5095   0.0000   0.0000   0.0000   0.0730
 -14.600  -0.2829   0.16852   0.16568  -0.0417  1.0000  0.0172  -1.5179   0.0000   0.0000   0.0000   0.0713
 -14.500  -0.2812   0.16729   0.16446  -0.0419  1.0000  0.0172  -1.5267   0.0000   0.0000   0.0000   0.0697
 -14.400  -0.2796   0.16606   0.16324  -0.0421  1.0000  0.0172  -1.5359   0.0000   0.0000   0.0000   0.0681
 -14.300  -0.2780   0.16483   0.16202  -0.0423  1.0000  0.0172  -1.5453   0.0000   0.0000   0.0000   0.0666
 -14.200  -0.2764   0.16361   0.16080  -0.0425  1.0000  0.0172  -1.5552   0.0000   0.0000   0.0000   0.0651
 -14.100  -0.2750   0.16238   0.15959  -0.0427  1.0000  0.0172  -1.5654   0.0000   0.0000   0.0000   0.0637
 -14.000  -0.2735   0.16116   0.15838  -0.0428  1.0000  0.0172  -1.5761   0.0000   0.0000   0.0000   0.0624
 -13.900  -0.2722   0.15995   0.15717  -0.0430  1.0000  0.0172  -1.5873   0.0000   0.0000   0.0000   0.0611
 -13.800  -0.2709   0.15873   0.15596  -0.0431  1.0000  0.0172  -1.5988   0.0000   0.0000   0.0000   0.0600
 -13.700  -0.2697   0.15751   0.15475  -0.0432  1.0000  0.0172  -1.6109   0.0000   0.0000   0.0000   0.0589
 -13.600  -0.2685   0.15629   0.15355  -0.0433  1.0000  0.0172  -1.6235   0.0000   0.0000   0.0000   0.0580
 -13.500  -0.2674   0.15507   0.15233  -0.0434  1.0000  0.0172  -1.6367   0.0000   0.0000   0.0000   0.0571
 -13.400  -0.2664   0.15385   0.15112  -0.0434  1.0000  0.0172  -1.6504   0.0000   0.0000   0.0000   0.0565
 -13.300  -0.2655   0.15263   0.14992  -0.0435  1.0000  0.0172  -1.6650   0.0000   0.0000   0.0000   0.0559
 -13.200  -0.2648   0.15142   0.14872  -0.0435  1.0000  0.0172  -1.6803   0.0000   0.0000   0.0000   0.0556
 -13.100  -0.2642   0.15023   0.14754  -0.0434  1.0000  0.0172  -1.6965   0.0000   0.0000   0.0000   0.0556
 -13.000  -0.2638   0.14905   0.14637  -0.0433  1.0000  0.0172  -1.7135   0.0000   0.0000   0.0000   0.0558
 -12.900  -0.2636   0.14789   0.14522  -0.0432  1.0000  0.0172  -1.7316   0.0000   0.0000   0.0000   0.0563
 -12.800  -0.2636   0.14675   0.14411  -0.0430  1.0000  0.0172  -1.7506   0.0000   0.0000   0.0000   0.0573
 -12.700  -0.2641   0.14566   0.14304  -0.0428  1.0000  0.0172  -1.7705   0.0000   0.0000   0.0000   0.0589
 -12.600  -0.2649   0.14463   0.14202  -0.0424  1.0000  0.0173  -1.7913   0.0000   0.0000   0.0000   0.0612
 -12.500  -0.2664   0.14368   0.14109  -0.0419  1.0000  0.0173  -1.8128   0.0000   0.0000   0.0000   0.0643
 -12.400  -0.2608   0.14165   0.13906  -0.0435  0.9996  0.0173  -1.8417   0.0000   0.0000   0.0000   0.0542
 -12.300  -0.2553   0.13963   0.13704  -0.0452  0.9991  0.0173  -1.8726   0.0000   0.0000   0.0000   0.0436
 -12.200  -0.2500   0.13762   0.13503  -0.0468  0.9986  0.0173  -1.9028   0.0000   0.0000   0.0000   0.0327
 -12.100  -0.2446   0.13563   0.13304  -0.0484  0.9980  0.0173  -1.9304   0.0000   0.0000   0.0000   0.0213
 -12.000  -0.2392   0.13368   0.13109  -0.0501  0.9974  0.0173  -1.9535   0.0000   0.0000   0.0000   0.0095
 -11.900  -0.2338   0.13177   0.12917  -0.0517  0.9968  0.0174  -1.9719   0.0000   0.0000   0.0000  -0.0028
 -11.800  -0.2284   0.12988   0.12728  -0.0533  0.9962  0.0174  -1.9866   0.0000   0.0000   0.0000  -0.0158
 -11.400  -0.2158   0.12082   0.11825  -0.0583  0.9935  0.0188  -2.0546   0.0000   0.0000   0.0000  -0.0544
 -11.300  -0.2079   0.11981   0.11724  -0.0593  0.9928  0.0191  -1.9888   0.0000   0.0000   0.0000  -0.0703
 -11.200  -0.1999   0.11888   0.11630  -0.0604  0.9921  0.0195  -1.9197   0.0000   0.0000   0.0000  -0.0881
 -11.100  -0.1922   0.11787   0.11529  -0.0616  0.9914  0.0200  -1.8596   0.0000   0.0000   0.0000  -0.1075
 -11.000  -0.1848   0.11675   0.11417  -0.0629  0.9908  0.0207  -1.8104   0.0000   0.0000   0.0000  -0.1288
 -10.900  -0.1780   0.11548   0.11290  -0.0643  0.9897  0.0214  -1.7741   0.0000   0.0000   0.0000  -0.1506
 -10.800  -0.1719   0.11406   0.11149  -0.0657  0.9882  0.0222  -1.7509   0.0000   0.0000   0.0000  -0.1727
 -10.700  -0.1659   0.11247   0.10989  -0.0674  0.9868  0.0232  -1.7418   0.0000   0.0000   0.0000  -0.1976
 -10.600  -0.1604   0.11062   0.10804  -0.0694  0.9855  0.0243  -1.7560   0.0000   0.0000   0.0000  -0.2253
 -10.500  -0.1555   0.10825   0.10568  -0.0741  0.9839  0.0264  -1.8813   0.0000   0.0000   0.0000  -0.2711
  -9.000  -0.1970   0.03119   0.02785  -0.1572  0.9217  0.0159  -4.9011   0.0000   0.0000   0.0000  -0.5848
  -8.900  -0.1783   0.02761   0.02392  -0.1662  0.9178  0.0162  -4.9347   0.0000   0.0000   0.0000  -0.7222
  -8.800  -0.1620   0.02595   0.02207  -0.1702  0.9147  0.0165  -4.8899   0.0000   0.0000   0.0000  -0.8440
  -8.700  -0.1516   0.02506   0.02106  -0.1716  0.9094  0.0167  -4.8346   0.0000   0.0000   0.0000  -0.9287
  -8.600  -0.1376   0.02433   0.02022  -0.1734  0.9056  0.0169  -4.7543   0.0000   0.0000   0.0000  -1.0604
  -8.500  -0.1225   0.02376   0.01955  -0.1752  0.9024  0.0171  -4.6597   0.0000   0.0000   0.0000  -1.2356
  -8.400  -0.1067   0.02333   0.01904  -0.1768  0.8995  0.0172  -4.5553   0.0000   0.0000   0.0000  -1.4702
  -8.300  -0.0905   0.02304   0.01867  -0.1784  0.8969  0.0174  -4.4437   0.0000   0.0000   0.0000  -1.7936
  -8.200  -0.0811   0.02067   0.01596  -0.1810  0.8918  0.0179  -4.4848   0.0000   0.0000   0.0000  -2.0622
  -8.100  -0.0691   0.01931   0.01437  -0.1826  0.8877  0.0182  -4.4581   0.0000   0.0000   0.0000  -2.4871
  -8.000  -0.0559   0.01846   0.01337  -0.1839  0.8842  0.0185  -4.3966   0.0000   0.0000   0.0000  -3.1539
  -7.900  -0.0421   0.01781   0.01259  -0.1850  0.8810  0.0187  -4.3209   0.0000   0.0000   0.0000  -4.3000
  -7.800  -0.0278   0.01726   0.01191  -0.1862  0.8781  0.0189  -4.2385   0.0000   0.0000   0.0000  -6.6790
  -7.700  -0.0141   0.01678   0.01133  -0.1871  0.8751  0.0192  -4.1548   0.0000   0.0000   0.0000  -13.4352
  -7.600  -0.0041   0.01645   0.01093  -0.1872  0.8712  0.0192  -4.0808   0.0000   0.0000   0.0000  -47.4206
  -7.500   0.0070   0.01613   0.01055  -0.1875  0.8673  0.0192  -4.0018   0.0000   0.0000   0.0000  27.7378
  -7.400   0.0191   0.01583   0.01018  -0.1879  0.8636  0.0191  -3.9185   0.0000   0.0000   0.0000  10.4001
  -7.300   0.0317   0.01554   0.00981  -0.1884  0.8602  0.0191  -3.8324   0.0000   0.0000   0.0000   6.3700
  -7.200   0.0448   0.01527   0.00946  -0.1890  0.8571  0.0191  -3.7442   0.0000   0.0000   0.0000   4.5937
  -7.100   0.0583   0.01502   0.00913  -0.1897  0.8542  0.0191  -3.6544   0.0000   0.0000   0.0000   3.6002
  -7.000   0.0698   0.01479   0.00885  -0.1900  0.8513  0.0191  -3.5719   0.0000   0.0000   0.0000   3.0522
  -6.900   0.0809   0.01457   0.00856  -0.1901  0.8482  0.0192  -3.4886   0.0000   0.0000   0.0000   2.6694
  -6.800   0.0924   0.01436   0.00830  -0.1904  0.8450  0.0192  -3.4069   0.0000   0.0000   0.0000   2.3700
  -6.700   0.1043   0.01415   0.00804  -0.1907  0.8420  0.0192  -3.3237   0.0000   0.0000   0.0000   2.1291
  -6.600   0.1166   0.01396   0.00779  -0.1911  0.8391  0.0193  -3.2397   0.0000   0.0000   0.0000   1.9336
  -6.500   0.1292   0.01377   0.00755  -0.1915  0.8363  0.0193  -3.1550   0.0000   0.0000   0.0000   1.7724
  -6.400   0.1421   0.01359   0.00732  -0.1920  0.8336  0.0194  -3.0698   0.0000   0.0000   0.0000   1.6375
  -6.300   0.1552   0.01343   0.00709  -0.1926  0.8310  0.0195  -2.9842   0.0000   0.0000   0.0000   1.5229
  -6.200   0.1676   0.01327   0.00690  -0.1930  0.8285  0.0196  -2.9020   0.0000   0.0000   0.0000   1.4309
  -6.100   0.1790   0.01311   0.00672  -0.1931  0.8261  0.0197  -2.8237   0.0000   0.0000   0.0000   1.3563
  -6.000   0.1906   0.01296   0.00654  -0.1934  0.8235  0.0199  -2.7449   0.0000   0.0000   0.0000   1.2894
  -5.900   0.2025   0.01282   0.00637  -0.1936  0.8210  0.0200  -2.6660   0.0000   0.0000   0.0000   1.2295
  -5.800   0.2144   0.01269   0.00622  -0.1939  0.8184  0.0202  -2.5871   0.0000   0.0000   0.0000   1.1757
  -5.700   0.2266   0.01257   0.00607  -0.1942  0.8157  0.0205  -2.5078   0.0000   0.0000   0.0000   1.1269
  -5.600   0.2389   0.01246   0.00593  -0.1945  0.8131  0.0208  -2.4283   0.0000   0.0000   0.0000   1.0828
  -5.500   0.2513   0.01237   0.00580  -0.1949  0.8105  0.0211  -2.3486   0.0000   0.0000   0.0000   1.0427
  -5.400   0.2638   0.01229   0.00570  -0.1952  0.8077  0.0214  -2.2901   0.0000   0.0000   0.0000   1.0061
  -5.300   0.2765   0.01225   0.00562  -0.1956  0.8048  0.0219  -2.2304   0.0000   0.0000   0.0000   0.9724
  -5.200   0.2878   0.01218   0.00556  -0.1956  0.8022  0.0223  -2.1729   0.0000   0.0000   0.0000   0.9441
  -5.100   0.2989   0.01213   0.00550  -0.1957  0.7993  0.0227  -2.1153   0.0000   0.0000   0.0000   0.9181
  -5.000   0.3101   0.01207   0.00544  -0.1957  0.7962  0.0231  -2.0580   0.0000   0.0000   0.0000   0.8938
  -4.900   0.3215   0.01202   0.00538  -0.1958  0.7930  0.0235  -2.0016   0.0000   0.0000   0.0000   0.8710
  -4.800   0.3331   0.01196   0.00530  -0.1959  0.7895  0.0239  -1.9463   0.0000   0.0000   0.0000   0.8494
  -4.700   0.3449   0.01191   0.00521  -0.1961  0.7859  0.0243  -1.8921   0.0000   0.0000   0.0000   0.8290
  -4.600   0.3570   0.01186   0.00512  -0.1963  0.7822  0.0246  -1.8387   0.0000   0.0000   0.0000   0.8098
  -4.500   0.3696   0.01183   0.00503  -0.1966  0.7780  0.0250  -1.7855   0.0000   0.0000   0.0000   0.7913
  -4.400   0.3806   0.01174   0.00495  -0.1966  0.7748  0.0253  -1.7368   0.0000   0.0000   0.0000   0.7755
  -4.300   0.3915   0.01167   0.00485  -0.1966  0.7711  0.0257  -1.6871   0.0000   0.0000   0.0000   0.7605
  -4.200   0.4030   0.01159   0.00474  -0.1966  0.7671  0.0259  -1.6401   0.0000   0.0000   0.0000   0.7460
  -4.100   0.4145   0.01152   0.00465  -0.1967  0.7629  0.0262  -1.5909   0.0000   0.0000   0.0000   0.7322
  -4.000   0.4256   0.01153   0.00463  -0.1967  0.7588  0.0267  -1.5347   0.0000   0.0000   0.0000   0.7192
  -3.900   0.4388   0.01133   0.00438  -0.1972  0.7548  0.0278  -1.4910   0.0000   0.0000   0.0000   0.7062
  -3.800   0.4518   0.01121   0.00420  -0.1977  0.7508  0.0293  -1.4417   0.0000   0.0000   0.0000   0.6940
  -3.700   0.4632   0.01115   0.00416  -0.1978  0.7476  0.0306  -1.3862   0.0000   0.0000   0.0000   0.6831
  -3.600   0.4745   0.01110   0.00412  -0.1979  0.7443  0.0317  -1.3353   0.0000   0.0000   0.0000   0.6727
  -3.500   0.4863   0.01103   0.00404  -0.1980  0.7408  0.0323  -1.2904   0.0000   0.0000   0.0000   0.6625
  -3.400   0.4984   0.01095   0.00393  -0.1983  0.7372  0.0325  -1.2505   0.0000   0.0000   0.0000   0.6528
  -3.300   0.5106   0.01088   0.00381  -0.1985  0.7338  0.0327  -1.2119   0.0000   0.0000   0.0000   0.6434
  -3.200   0.5228   0.01081   0.00370  -0.1987  0.7305  0.0328  -1.1732   0.0000   0.0000   0.0000   0.6344
  -3.100   0.5350   0.01076   0.00360  -0.1989  0.7274  0.0330  -1.1346   0.0000   0.0000   0.0000   0.6259
  -3.000   0.5472   0.01072   0.00350  -0.1991  0.7243  0.0333  -1.0961   0.0000   0.0000   0.0000   0.6177
  -2.900   0.5596   0.01069   0.00343  -0.1994  0.7212  0.0335  -1.0575   0.0000   0.0000   0.0000   0.6098
  -2.800   0.5716   0.01063   0.00335  -0.1996  0.7191  0.0339  -1.0197   0.0000   0.0000   0.0000   0.6024
  -2.700   0.5837   0.01057   0.00329  -0.1998  0.7169  0.0343  -0.9819   0.0000   0.0000   0.0000   0.5953
  -2.600   0.5957   0.01051   0.00322  -0.1999  0.7146  0.0348  -0.9443   0.0000   0.0000   0.0000   0.5884
  -2.500   0.6077   0.01047   0.00316  -0.2001  0.7121  0.0354  -0.9068   0.0000   0.0000   0.0000   0.5819
  -2.400   0.6197   0.01043   0.00311  -0.2003  0.7095  0.0361  -0.8772   0.0000   0.0000   0.0000   0.5755
  -2.300   0.6317   0.01040   0.00302  -0.2004  0.7067  0.0370  -0.8858   0.0000   0.0000   0.0000   0.5694
  -2.200   0.6435   0.01038   0.00297  -0.2005  0.7040  0.0376  -0.8944   0.0000   0.0000   0.0000   0.5636
  -2.100   0.6553   0.01036   0.00292  -0.2006  0.7012  0.0382  -0.9030   0.0000   0.0000   0.0000   0.5579
  -2.000   0.6671   0.01035   0.00288  -0.2007  0.6984  0.0391  -0.9116   0.0000   0.0000   0.0000   0.5525
  -1.900   0.6789   0.01034   0.00283  -0.2009  0.6955  0.0409  -0.9203   0.0000   0.0000   0.0000   0.5472
  -1.800   0.6908   0.01033   0.00278  -0.2010  0.6927  0.0441  -0.9290   0.0000   0.0000   0.0000   0.5421
  -1.700   0.7028   0.01030   0.00275  -0.2012  0.6901  0.0481  -0.9377   0.0000   0.0000   0.0000   0.5372
  -1.600   0.7147   0.01027   0.00273  -0.2013  0.6878  0.0497  -0.9464   0.0000   0.0000   0.0000   0.5325
  -1.500   0.7264   0.01025   0.00271  -0.2015  0.6852  0.0511  -0.9564   0.0000   0.0000   0.0000   0.5279
  -1.400   0.7382   0.01024   0.00269  -0.2016  0.6826  0.0601  -0.9665   0.0000   0.0000   0.0000   0.5235
  -1.300   0.7497   0.01024   0.00268  -0.2016  0.6798  0.0616  -0.9766   0.0000   0.0000   0.0000   0.5192
  -1.200   0.7612   0.01025   0.00266  -0.2017  0.6770  0.0632  -0.9866   0.0000   0.0000   0.0000   0.5150
  -1.100   0.7726   0.01026   0.00265  -0.2017  0.6741  0.0646  -0.9966   0.0000   0.0000   0.0000   0.5110
  -1.000   0.7840   0.01027   0.00263  -0.2017  0.6712  0.0657  -1.0067   0.0000   0.0000   0.0000   0.5070
  -0.900   0.7953   0.01029   0.00262  -0.2017  0.6682  0.0667  -1.0167   0.0000   0.0000   0.0000   0.5032
  -0.800   0.8066   0.01032   0.00262  -0.2017  0.6652  0.0676  -1.0267   0.0000   0.0000   0.0000   0.4995
  -0.700   0.8180   0.01035   0.00262  -0.2018  0.6621  0.0696  -1.0367   0.0000   0.0000   0.0000   0.4959
  -0.600   0.8295   0.01036   0.00262  -0.2018  0.6596  0.0724  -1.0469   0.0000   0.0000   0.0000   0.4924
  -0.500   0.8413   0.01034   0.00263  -0.2020  0.6574  0.0761  -1.0571   0.0000   0.0000   0.0000   0.4890
  -0.400   0.8529   0.01033   0.00264  -0.2021  0.6548  0.0799  -1.0673   0.0000   0.0000   0.0000   0.4857
  -0.300   0.8646   0.01031   0.00266  -0.2022  0.6518  0.0841  -1.0776   0.0000   0.0000   0.0000   0.4825
  -0.200   0.8763   0.01031   0.00267  -0.2023  0.6485  0.1004  -1.0878   0.0000   0.0000   0.0000   0.4794
  -0.100   0.8878   0.01030   0.00268  -0.2024  0.6450  0.1090  -1.0980   0.0000   0.0000   0.0000   0.4763
   0.000   0.9000   0.01026   0.00269  -0.2027  0.6412  0.1265  -1.1086   0.0000   0.0000   0.0000   0.4734


