xflr5 v6.59

 Calculated polar for: WORTMANN FX 63-137 AIRFOIL

 1 1 Reynolds number fixed          Mach number fixed         

 xtrf =   1.000 (top)        1.000 (bottom)
 Mach =   0.000     Re =     5.000 e 6     Ncrit =   9.000

  alpha     CL        CD       CDp       Cm    Top Xtr Bot Xtr   Cpmin    Chinge    XCp    
 ------- -------- --------- --------- -------- ------- ------- -------- --------- ---------
 -16.100  -0.6894   0.05535   0.05338  -0.1355  0.9400  0.0042  -13.7675   0.0000   0.0000   0.0000   0.0231
 -15.900  -0.7172   0.04500   0.04267  -0.1480  0.8989  0.0042  -14.3174   0.0000   0.0000   0.0000   0.0147
 -15.800  -0.7266   0.04188   0.03942  -0.1512  0.8807  0.0042  -14.4477   0.0000   0.0000   0.0000   0.0135
 -15.700  -0.7324   0.03950   0.03695  -0.1535  0.8656  0.0042  -14.5075   0.0000   0.0000   0.0000   0.0124
 -15.500  -0.7399   0.03570   0.03296  -0.1572  0.8371  0.0042  -14.5446   0.0000   0.0000   0.0000   0.0105
 -15.400  -0.7432   0.03388   0.03107  -0.1589  0.8270  0.0042  -14.5518   0.0000   0.0000   0.0000   0.0095
 -15.300  -0.7433   0.03261   0.02975  -0.1601  0.8158  0.0042  -14.5063   0.0000   0.0000   0.0000   0.0084
 -15.200  -0.7453   0.03110   0.02815  -0.1615  0.8031  0.0042  -14.4878   0.0000   0.0000   0.0000   0.0075
 -15.100  -0.7441   0.03000   0.02702  -0.1624  0.7967  0.0042  -14.4223   0.0000   0.0000   0.0000   0.0062
 -15.000  -0.7445   0.02869   0.02565  -0.1636  0.7905  0.0042  -14.3790   0.0000   0.0000   0.0000   0.0050
 -14.900  -0.7426   0.02776   0.02468  -0.1643  0.7830  0.0042  -14.2993   0.0000   0.0000   0.0000   0.0038
 -14.800  -0.7413   0.02672   0.02360  -0.1652  0.7773  0.0042  -14.2290   0.0000   0.0000   0.0000   0.0025
 -14.700  -0.7396   0.02575   0.02261  -0.1659  0.7751  0.0042  -14.1516   0.0000   0.0000   0.0000   0.0013
 -14.600  -0.7381   0.02490   0.02173  -0.1664  0.7716  0.0043  -14.0722   0.0000   0.0000   0.0000   0.0004
 -14.500  -0.7363   0.02403   0.02082  -0.1672  0.7646  0.0043  -13.9926   0.0000   0.0000   0.0000  -0.0008
 -14.400  -0.7316   0.02331   0.02004  -0.1680  0.7525  0.0043  -13.8804   0.0000   0.0000   0.0000  -0.0032
 -14.300  -0.7258   0.02248   0.01917  -0.1693  0.7468  0.0043  -13.7609   0.0000   0.0000   0.0000  -0.0067
 -14.200  -0.7188   0.02178   0.01845  -0.1704  0.7427  0.0043  -13.6269   0.0000   0.0000   0.0000  -0.0104
 -14.100  -0.7113   0.02104   0.01767  -0.1718  0.7384  0.0043  -13.4906   0.0000   0.0000   0.0000  -0.0147
 -14.000  -0.7038   0.02020   0.01676  -0.1734  0.7319  0.0043  -13.3633   0.0000   0.0000   0.0000  -0.0195
 -13.900  -0.6945   0.01960   0.01612  -0.1748  0.7271  0.0043  -13.2061   0.0000   0.0000   0.0000  -0.0247
 -13.800  -0.6843   0.01901   0.01551  -0.1763  0.7236  0.0043  -13.0409   0.0000   0.0000   0.0000  -0.0306
 -13.700  -0.6735   0.01848   0.01496  -0.1777  0.7212  0.0043  -12.8690   0.0000   0.0000   0.0000  -0.0368
 -13.600  -0.6621   0.01797   0.01443  -0.1792  0.7206  0.0044  -12.6913   0.0000   0.0000   0.0000  -0.0437
 -13.500  -0.6503   0.01751   0.01397  -0.1806  0.7201  0.0044  -12.5098   0.0000   0.0000   0.0000  -0.0508
 -13.400  -0.6387   0.01714   0.01358  -0.1818  0.7195  0.0044  -12.3271   0.0000   0.0000   0.0000  -0.0577
 -13.300  -0.6275   0.01685   0.01329  -0.1825  0.7187  0.0044  -12.1459   0.0000   0.0000   0.0000  -0.0640
 -13.200  -0.6166   0.01663   0.01306  -0.1830  0.7171  0.0044  -11.9651   0.0000   0.0000   0.0000  -0.0700
 -13.100  -0.6059   0.01646   0.01289  -0.1834  0.7131  0.0044  -11.7836   0.0000   0.0000   0.0000  -0.0759
 -13.000  -0.5963   0.01641   0.01280  -0.1834  0.6974  0.0044  -11.6088   0.0000   0.0000   0.0000  -0.0808
 -12.900  -0.5858   0.01644   0.01282  -0.1834  0.6859  0.0045  -11.4206   0.0000   0.0000   0.0000  -0.0863
 -12.800  -0.5749   0.01681   0.01324  -0.1827  0.6777  0.0045  -11.2063   0.0000   0.0000   0.0000  -0.0911
  -6.900   0.1085   0.00861   0.00247  -0.2004  0.3053  0.0062  -3.7084   0.0000   0.0000   0.0000   2.1484
  -6.800   0.1203   0.00860   0.00244  -0.2005  0.3020  0.0062  -3.6350   0.0000   0.0000   0.0000   1.9624
  -6.700   0.1320   0.00859   0.00242  -0.2006  0.2985  0.0061  -3.5622   0.0000   0.0000   0.0000   1.8102
  -6.600   0.1438   0.00859   0.00239  -0.2008  0.2948  0.0061  -3.4898   0.0000   0.0000   0.0000   1.6832
  -6.500   0.1555   0.00858   0.00237  -0.2009  0.2910  0.0060  -3.4176   0.0000   0.0000   0.0000   1.5750
  -6.400   0.1673   0.00857   0.00235  -0.2010  0.2870  0.0060  -3.3456   0.0000   0.0000   0.0000   1.4816
  -6.300   0.1792   0.00856   0.00233  -0.2011  0.2825  0.0059  -3.2737   0.0000   0.0000   0.0000   1.4003
  -6.200   0.1911   0.00854   0.00231  -0.2013  0.2792  0.0059  -3.2013   0.0000   0.0000   0.0000   1.3289
  -6.100   0.2030   0.00852   0.00229  -0.2014  0.2783  0.0058  -3.1284   0.0000   0.0000   0.0000   1.2659
  -6.000   0.2149   0.00851   0.00227  -0.2015  0.2777  0.0058  -3.0542   0.0000   0.0000   0.0000   1.2099
  -5.900   0.2267   0.00850   0.00226  -0.2016  0.2770  0.0058  -2.9779   0.0000   0.0000   0.0000   1.1599
  -5.800   0.2385   0.00849   0.00226  -0.2018  0.2761  0.0058  -2.8969   0.0000   0.0000   0.0000   1.1151
  -5.700   0.2485   0.00864   0.00250  -0.2015  0.2752  0.0058  -2.7046   0.0000   0.0000   0.0000   1.0789
  -5.600   0.2603   0.00863   0.00250  -0.2016  0.2750  0.0058  -2.6315   0.0000   0.0000   0.0000   1.0414
  -5.500   0.2714   0.00868   0.00252  -0.2016  0.2627  0.0057  -2.5665   0.0000   0.0000   0.0000   1.0087
  -5.400   0.2825   0.00872   0.00252  -0.2016  0.2492  0.0057  -2.5050   0.0000   0.0000   0.0000   0.9785
  -5.300   0.2943   0.00872   0.00250  -0.2017  0.2462  0.0056  -2.4435   0.0000   0.0000   0.0000   0.9494
  -5.200   0.3061   0.00871   0.00248  -0.2018  0.2433  0.0056  -2.3837   0.0000   0.0000   0.0000   0.9226
  -5.100   0.3179   0.00871   0.00245  -0.2020  0.2404  0.0055  -2.3255   0.0000   0.0000   0.0000   0.8979
  -5.000   0.3296   0.00871   0.00243  -0.2021  0.2374  0.0054  -2.2686   0.0000   0.0000   0.0000   0.8748
  -4.900   0.3415   0.00870   0.00240  -0.2022  0.2345  0.0054  -2.2129   0.0000   0.0000   0.0000   0.8533
  -4.800   0.3534   0.00868   0.00237  -0.2024  0.2314  0.0053  -2.1583   0.0000   0.0000   0.0000   0.8331
  -4.700   0.3654   0.00867   0.00234  -0.2025  0.2283  0.0053  -2.1049   0.0000   0.0000   0.0000   0.8142
  -4.600   0.3773   0.00865   0.00231  -0.2027  0.2249  0.0052  -2.0528   0.0000   0.0000   0.0000   0.7965
  -4.500   0.3894   0.00863   0.00228  -0.2028  0.2224  0.0052  -2.0021   0.0000   0.0000   0.0000   0.7798
  -4.400   0.4014   0.00860   0.00224  -0.2030  0.2218  0.0051  -1.9535   0.0000   0.0000   0.0000   0.7641
  -4.300   0.4135   0.00858   0.00221  -0.2032  0.2213  0.0051  -1.9054   0.0000   0.0000   0.0000   0.7493
  -4.200   0.4255   0.00856   0.00218  -0.2033  0.2209  0.0051  -1.8592   0.0000   0.0000   0.0000   0.7353
  -4.100   0.4376   0.00854   0.00214  -0.2035  0.2204  0.0050  -1.8154   0.0000   0.0000   0.0000   0.7221
  -4.000   0.4502   0.00848   0.00205  -0.2038  0.2198  0.0050  -1.8188   0.0000   0.0000   0.0000   0.7093
  -3.900   0.4622   0.00846   0.00203  -0.2039  0.2190  0.0049  -1.7835   0.0000   0.0000   0.0000   0.6975
  -3.800   0.4742   0.00845   0.00201  -0.2041  0.2184  0.0049  -1.7411   0.0000   0.0000   0.0000   0.6863
  -3.700   0.4861   0.00844   0.00200  -0.2042  0.2181  0.0049  -1.6973   0.0000   0.0000   0.0000   0.6757
  -3.600   0.4969   0.00853   0.00204  -0.2041  0.2013  0.0049  -1.6565   0.0000   0.0000   0.0000   0.6662
  -3.500   0.5084   0.00856   0.00204  -0.2042  0.1945  0.0050  -1.6172   0.0000   0.0000   0.0000   0.6567
  -3.400   0.5210   0.00850   0.00202  -0.2045  0.1925  0.0138  -1.6265   0.0000   0.0000   0.0000   0.6473
  -3.300   0.5326   0.00852   0.00203  -0.2046  0.1905  0.0142  -1.5660   0.0000   0.0000   0.0000   0.6386
  -3.200   0.5442   0.00853   0.00203  -0.2047  0.1886  0.0146  -1.5059   0.0000   0.0000   0.0000   0.6303
  -3.100   0.5557   0.00855   0.00204  -0.2048  0.1867  0.0148  -1.4461   0.0000   0.0000   0.0000   0.6223
  -3.000   0.5673   0.00857   0.00204  -0.2048  0.1848  0.0150  -1.3865   0.0000   0.0000   0.0000   0.6147
  -2.900   0.5789   0.00859   0.00205  -0.2049  0.1828  0.0152  -1.3271   0.0000   0.0000   0.0000   0.6074
  -2.800   0.5905   0.00860   0.00205  -0.2050  0.1809  0.0154  -1.2680   0.0000   0.0000   0.0000   0.6003
  -2.700   0.6021   0.00861   0.00206  -0.2051  0.1789  0.0155  -1.2101   0.0000   0.0000   0.0000   0.5935
  -2.600   0.6138   0.00862   0.00206  -0.2052  0.1767  0.0156  -1.1546   0.0000   0.0000   0.0000   0.5870
  -2.500   0.6254   0.00863   0.00206  -0.2053  0.1733  0.0157  -1.1038   0.0000   0.0000   0.0000   0.5807
  -2.400   0.6372   0.00864   0.00206  -0.2054  0.1701  0.0155  -1.0630   0.0000   0.0000   0.0000   0.5746
  -2.200   0.6589   0.00880   0.00214  -0.2053  0.1457  0.0153  -0.9751   0.0000   0.0000   0.0000   0.5634
  -2.100   0.6704   0.00882   0.00215  -0.2053  0.1440  0.0155  -0.9281   0.0000   0.0000   0.0000   0.5579
  -2.000   0.6819   0.00885   0.00216  -0.2054  0.1425  0.0156  -0.9368   0.0000   0.0000   0.0000   0.5527
  -1.900   0.6934   0.00887   0.00217  -0.2055  0.1409  0.0157  -0.9455   0.0000   0.0000   0.0000   0.5476
  -1.800   0.7048   0.00890   0.00218  -0.2055  0.1394  0.0158  -0.9542   0.0000   0.0000   0.0000   0.5426
  -1.700   0.7163   0.00892   0.00219  -0.2056  0.1380  0.0159  -0.9640   0.0000   0.0000   0.0000   0.5379
  -1.600   0.7278   0.00894   0.00221  -0.2056  0.1365  0.0160  -0.9742   0.0000   0.0000   0.0000   0.5333
  -1.500   0.7393   0.00897   0.00222  -0.2057  0.1350  0.0161  -0.9845   0.0000   0.0000   0.0000   0.5288
  -1.400   0.7508   0.00899   0.00223  -0.2058  0.1335  0.0162  -0.9948   0.0000   0.0000   0.0000   0.5244
  -1.300   0.7623   0.00900   0.00224  -0.2058  0.1320  0.0163  -1.0051   0.0000   0.0000   0.0000   0.5202
  -1.200   0.7738   0.00902   0.00226  -0.2059  0.1303  0.0163  -1.0154   0.0000   0.0000   0.0000   0.5161
  -1.100   0.7854   0.00904   0.00227  -0.2060  0.1287  0.0164  -1.0257   0.0000   0.0000   0.0000   0.5121
  -1.000   0.7969   0.00906   0.00229  -0.2060  0.1271  0.0164  -1.0361   0.0000   0.0000   0.0000   0.5082
  -0.900   0.8084   0.00908   0.00230  -0.2061  0.1257  0.0165  -1.0464   0.0000   0.0000   0.0000   0.5045
  -0.800   0.8199   0.00910   0.00232  -0.2062  0.1241  0.0165  -1.0568   0.0000   0.0000   0.0000   0.5008
  -0.700   0.8314   0.00912   0.00233  -0.2062  0.1237  0.0166  -1.0672   0.0000   0.0000   0.0000   0.4973
  -0.600   0.8429   0.00914   0.00235  -0.2063  0.1232  0.0166  -1.0776   0.0000   0.0000   0.0000   0.4938
  -0.500   0.8544   0.00916   0.00237  -0.2064  0.1228  0.0166  -1.0880   0.0000   0.0000   0.0000   0.4904
  -0.400   0.8659   0.00918   0.00239  -0.2064  0.1225  0.0167  -1.0984   0.0000   0.0000   0.0000   0.4871
  -0.300   0.8773   0.00920   0.00241  -0.2065  0.1221  0.0167  -1.1088   0.0000   0.0000   0.0000   0.4839
  -0.200   0.8888   0.00922   0.00243  -0.2065  0.1217  0.0169  -1.1192   0.0000   0.0000   0.0000   0.4808
  -0.100   0.9002   0.00925   0.00245  -0.2066  0.1212  0.0170  -1.1296   0.0000   0.0000   0.0000   0.4778
   0.000   0.9116   0.00927   0.00247  -0.2067  0.1203  0.0171  -1.1401   0.0000   0.0000   0.0000   0.4748


