xflr5 v6.59

 Calculated polar for: WORTMANN FX 63-137 AIRFOIL

 1 1 Reynolds number fixed          Mach number fixed         

 xtrf =   1.000 (top)        1.000 (bottom)
 Mach =   0.000     Re =     0.100 e 6     Ncrit =   9.000

  alpha     CL        CD       CDp       Cm    Top Xtr Bot Xtr   Cpmin    Chinge    XCp    
 ------- -------- --------- --------- -------- ------- ------- -------- --------- ---------
 -20.000  -0.4149   0.23329   0.22715  -0.0196  1.0000  0.0349  -1.2270   0.0000   0.0000   0.0000   0.1720
 -19.900  -0.4119   0.23222   0.22608  -0.0202  1.0000  0.0352  -1.2300   0.0000   0.0000   0.0000   0.1702
 -19.800  -0.4090   0.23118   0.22504  -0.0208  1.0000  0.0356  -1.2338   0.0000   0.0000   0.0000   0.1683
 -19.700  -0.4060   0.23017   0.22405  -0.0214  1.0000  0.0359  -1.2388   0.0000   0.0000   0.0000   0.1664
 -19.600  -0.4031   0.22924   0.22312  -0.0221  1.0000  0.0363  -1.2452   0.0000   0.0000   0.0000   0.1644
 -19.500  -0.4002   0.22838   0.22227  -0.0228  1.0000  0.0366  -1.2533   0.0000   0.0000   0.0000   0.1623
 -19.400  -0.3975   0.22763   0.22153  -0.0235  1.0000  0.0369  -1.2633   0.0000   0.0000   0.0000   0.1601
 -19.300  -0.3948   0.22700   0.22091  -0.0243  1.0000  0.0371  -1.2750   0.0000   0.0000   0.0000   0.1578
 -19.200  -0.3923   0.22648   0.22040  -0.0251  1.0000  0.0373  -1.2879   0.0000   0.0000   0.0000   0.1554
 -19.100  -0.3900   0.22604   0.21997  -0.0259  1.0000  0.0375  -1.3016   0.0000   0.0000   0.0000   0.1530
 -19.000  -0.3879   0.22566   0.21960  -0.0267  1.0000  0.0376  -1.3157   0.0000   0.0000   0.0000   0.1507
 -18.900  -0.3858   0.22528   0.21923  -0.0275  1.0000  0.0377  -1.3299   0.0000   0.0000   0.0000   0.1484
 -18.800  -0.3840   0.22488   0.21885  -0.0283  1.0000  0.0378  -1.3443   0.0000   0.0000   0.0000   0.1461
 -18.700  -0.3822   0.22444   0.21841  -0.0290  1.0000  0.0379  -1.3588   0.0000   0.0000   0.0000   0.1439
 -18.600  -0.3806   0.22398   0.21797  -0.0298  1.0000  0.0380  -1.3734   0.0000   0.0000   0.0000   0.1418
 -18.500  -0.3791   0.22351   0.21751  -0.0305  1.0000  0.0380  -1.3881   0.0000   0.0000   0.0000   0.1397
 -18.400  -0.3777   0.22303   0.21704  -0.0312  1.0000  0.0381  -1.4027   0.0000   0.0000   0.0000   0.1376
 -18.300  -0.3763   0.22252   0.21655  -0.0319  1.0000  0.0381  -1.4174   0.0000   0.0000   0.0000   0.1355
 -18.200  -0.3750   0.22201   0.21604  -0.0326  1.0000  0.0382  -1.4322   0.0000   0.0000   0.0000   0.1335
 -18.100  -0.3738   0.22147   0.21552  -0.0333  1.0000  0.0382  -1.4471   0.0000   0.0000   0.0000   0.1316
 -18.000  -0.3726   0.22092   0.21498  -0.0340  1.0000  0.0382  -1.4621   0.0000   0.0000   0.0000   0.1297
 -17.900  -0.3716   0.22035   0.21442  -0.0346  1.0000  0.0383  -1.4773   0.0000   0.0000   0.0000   0.1278
 -17.800  -0.3705   0.21976   0.21385  -0.0352  1.0000  0.0383  -1.4927   0.0000   0.0000   0.0000   0.1259
 -17.700  -0.3696   0.21916   0.21326  -0.0359  1.0000  0.0383  -1.5083   0.0000   0.0000   0.0000   0.1241
 -17.600  -0.3685   0.21846   0.21258  -0.0365  1.0000  0.0384  -1.5230   0.0000   0.0000   0.0000   0.1223
 -17.500  -0.3672   0.21768   0.21180  -0.0371  1.0000  0.0384  -1.5372   0.0000   0.0000   0.0000   0.1205
 -17.400  -0.3658   0.21681   0.21095  -0.0376  1.0000  0.0384  -1.5504   0.0000   0.0000   0.0000   0.1186
 -17.300  -0.3530   0.20847   0.20263  -0.0367  1.0000  0.0388  -1.4966   0.0000   0.0000   0.0000   0.1164
 -17.200  -0.3448   0.20410   0.19825  -0.0361  1.0000  0.0392  -1.4469   0.0000   0.0000   0.0000   0.1151
 -17.100  -0.3396   0.20164   0.19579  -0.0359  1.0000  0.0395  -1.4174   0.0000   0.0000   0.0000   0.1138
 -17.000  -0.3354   0.19978   0.19393  -0.0358  1.0000  0.0398  -1.3959   0.0000   0.0000   0.0000   0.1123
 -16.900  -0.3317   0.19820   0.19236  -0.0359  1.0000  0.0401  -1.3791   0.0000   0.0000   0.0000   0.1108
 -16.800  -0.3283   0.19679   0.19096  -0.0360  1.0000  0.0405  -1.3658   0.0000   0.0000   0.0000   0.1092
 -16.700  -0.3251   0.19548   0.18966  -0.0362  1.0000  0.0408  -1.3552   0.0000   0.0000   0.0000   0.1074
 -16.600  -0.3221   0.19423   0.18842  -0.0364  1.0000  0.0412  -1.3467   0.0000   0.0000   0.0000   0.1056
 -16.500  -0.3191   0.19303   0.18722  -0.0367  1.0000  0.0416  -1.3400   0.0000   0.0000   0.0000   0.1038
 -16.400  -0.3163   0.19184   0.18605  -0.0369  1.0000  0.0420  -1.3349   0.0000   0.0000   0.0000   0.1019
 -16.300  -0.3135   0.19068   0.18490  -0.0372  1.0000  0.0424  -1.3311   0.0000   0.0000   0.0000   0.0999
 -16.200  -0.3108   0.18953   0.18376  -0.0375  1.0000  0.0428  -1.3287   0.0000   0.0000   0.0000   0.0979
 -16.100  -0.3082   0.18839   0.18262  -0.0378  1.0000  0.0433  -1.3273   0.0000   0.0000   0.0000   0.0959
 -16.000  -0.3057   0.18723   0.18143  -0.0381  1.0000  0.0438  -1.3272   0.0000   0.0000   0.0000   0.0939
 -15.900  -0.3032   0.18610   0.18031  -0.0384  1.0000  0.0442  -1.3280   0.0000   0.0000   0.0000   0.0918
 -15.800  -0.3007   0.18497   0.17920  -0.0387  1.0000  0.0448  -1.3297   0.0000   0.0000   0.0000   0.0897
 -15.700  -0.2984   0.18385   0.17808  -0.0390  1.0000  0.0453  -1.3325   0.0000   0.0000   0.0000   0.0876
 -15.600  -0.2960   0.18274   0.17698  -0.0393  1.0000  0.0460  -1.3360   0.0000   0.0000   0.0000   0.0854
 -15.500  -0.2938   0.18165   0.17590  -0.0397  1.0000  0.0467  -1.3408   0.0000   0.0000   0.0000   0.0832
 -15.400  -0.2918   0.18059   0.17486  -0.0401  1.0000  0.0476  -1.3482   0.0000   0.0000   0.0000   0.0809
 -15.300  -0.2900   0.17962   0.17391  -0.0406  1.0000  0.0486  -1.3605   0.0000   0.0000   0.0000   0.0785
 -15.200  -0.2890   0.17893   0.17323  -0.0412  1.0000  0.0497  -1.3834   0.0000   0.0000   0.0000   0.0759
 -15.100  -0.2899   0.17891   0.17323  -0.0422  1.0000  0.0506  -1.4242   0.0000   0.0000   0.0000   0.0732
 -15.000  -0.2927   0.17948   0.17384  -0.0434  1.0000  0.0511  -1.4731   0.0000   0.0000   0.0000   0.0713
 -14.900  -0.2963   0.18015   0.17452  -0.0444  1.0000  0.0514  -1.5195   0.0000   0.0000   0.0000   0.0704
 -14.800  -0.3000   0.18071   0.17512  -0.0452  1.0000  0.0515  -1.5623   0.0000   0.0000   0.0000   0.0700
 -14.700  -0.3034   0.18106   0.17549  -0.0460  1.0000  0.0517  -1.6015   0.0000   0.0000   0.0000   0.0697
 -14.600  -0.3054   0.18099   0.17545  -0.0467  1.0000  0.0518  -1.6356   0.0000   0.0000   0.0000   0.0687
 -14.500  -0.3065   0.18064   0.17512  -0.0474  1.0000  0.0519  -1.6649   0.0000   0.0000   0.0000   0.0676
 -14.400  -0.2870   0.17177   0.16625  -0.0455  1.0000  0.0529  -1.5611   0.0000   0.0000   0.0000   0.0617
 -14.300  -0.2787   0.16896   0.16344  -0.0446  1.0000  0.0536  -1.5059   0.0000   0.0000   0.0000   0.0591
 -14.200  -0.2741   0.16731   0.16180  -0.0443  1.0000  0.0541  -1.4794   0.0000   0.0000   0.0000   0.0573
 -14.100  -0.2706   0.16595   0.16045  -0.0442  1.0000  0.0547  -1.4613   0.0000   0.0000   0.0000   0.0556
 -14.000  -0.2676   0.16472   0.15923  -0.0441  1.0000  0.0552  -1.4479   0.0000   0.0000   0.0000   0.0540
 -13.900  -0.2650   0.16358   0.15810  -0.0440  1.0000  0.0558  -1.4379   0.0000   0.0000   0.0000   0.0524
 -13.800  -0.2627   0.16247   0.15701  -0.0441  1.0000  0.0564  -1.4305   0.0000   0.0000   0.0000   0.0509
 -13.700  -0.2605   0.16140   0.15596  -0.0441  1.0000  0.0570  -1.4250   0.0000   0.0000   0.0000   0.0494
 -13.600  -0.2586   0.16035   0.15492  -0.0441  1.0000  0.0576  -1.4211   0.0000   0.0000   0.0000   0.0479
 -13.500  -0.2568   0.15931   0.15390  -0.0442  1.0000  0.0583  -1.4186   0.0000   0.0000   0.0000   0.0466
 -13.400  -0.2551   0.15829   0.15290  -0.0443  1.0000  0.0589  -1.4173   0.0000   0.0000   0.0000   0.0452
 -13.300  -0.2537   0.15728   0.15190  -0.0443  1.0000  0.0596  -1.4170   0.0000   0.0000   0.0000   0.0440
 -13.200  -0.2523   0.15628   0.15092  -0.0444  1.0000  0.0603  -1.4177   0.0000   0.0000   0.0000   0.0428
 -13.100  -0.2511   0.15529   0.14995  -0.0445  1.0000  0.0610  -1.4196   0.0000   0.0000   0.0000   0.0417
 -13.000  -0.2501   0.15432   0.14900  -0.0446  1.0000  0.0617  -1.4227   0.0000   0.0000   0.0000   0.0407
 -12.900  -0.2493   0.15339   0.14809  -0.0447  1.0000  0.0625  -1.4275   0.0000   0.0000   0.0000   0.0399
 -12.800  -0.2489   0.15251   0.14724  -0.0449  1.0000  0.0632  -1.4348   0.0000   0.0000   0.0000   0.0392
 -12.700  -0.2490   0.15174   0.14649  -0.0450  1.0000  0.0640  -1.4458   0.0000   0.0000   0.0000   0.0388
 -12.600  -0.2499   0.15114   0.14592  -0.0453  1.0000  0.0648  -1.4625   0.0000   0.0000   0.0000   0.0389
 -12.500  -0.2520   0.15080   0.14560  -0.0456  1.0000  0.0654  -1.4861   0.0000   0.0000   0.0000   0.0396
 -12.400  -0.2553   0.15067   0.14551  -0.0460  1.0000  0.0659  -1.5143   0.0000   0.0000   0.0000   0.0413
 -12.300  -0.2593   0.15064   0.14552  -0.0463  1.0000  0.0662  -1.5436   0.0000   0.0000   0.0000   0.0437
 -12.200  -0.2638   0.15062   0.14554  -0.0465  1.0000  0.0664  -1.5724   0.0000   0.0000   0.0000   0.0468
 -12.100  -0.2678   0.15046   0.14542  -0.0466  1.0000  0.0666  -1.5991   0.0000   0.0000   0.0000   0.0497
 -12.000  -0.2715   0.15019   0.14518  -0.0466  1.0000  0.0668  -1.6233   0.0000   0.0000   0.0000   0.0526
 -11.900  -0.2750   0.14986   0.14489  -0.0465  1.0000  0.0669  -1.6447   0.0000   0.0000   0.0000   0.0557
 -11.800  -0.2787   0.14951   0.14458  -0.0463  1.0000  0.0670  -1.6649   0.0000   0.0000   0.0000   0.0593
 -11.700  -0.2824   0.14915   0.14426  -0.0460  1.0000  0.0670  -1.6831   0.0000   0.0000   0.0000   0.0633
 -11.600  -0.2863   0.14878   0.14394  -0.0455  1.0000  0.0671  -1.6998   0.0000   0.0000   0.0000   0.0677
 -11.500  -0.2906   0.14844   0.14363  -0.0450  1.0000  0.0672  -1.7159   0.0000   0.0000   0.0000   0.0725
 -11.400  -0.2951   0.14811   0.14334  -0.0443  1.0000  0.0672  -1.7317   0.0000   0.0000   0.0000   0.0777
 -11.300  -0.2998   0.14780   0.14307  -0.0436  1.0000  0.0672  -1.7472   0.0000   0.0000   0.0000   0.0830
 -11.200  -0.3048   0.14751   0.14282  -0.0429  1.0000  0.0673  -1.7625   0.0000   0.0000   0.0000   0.0885
 -11.100  -0.3099   0.14721   0.14256  -0.0421  1.0000  0.0673  -1.7777   0.0000   0.0000   0.0000   0.0938
 -11.000  -0.3150   0.14690   0.14229  -0.0413  1.0000  0.0673  -1.7929   0.0000   0.0000   0.0000   0.0991
 -10.900  -0.2938   0.13974   0.13512  -0.0393  1.0000  0.0687  -1.6684   0.0000   0.0000   0.0000   0.0950
 -10.800  -0.2899   0.13832   0.13370  -0.0378  1.0000  0.0692  -1.6247   0.0000   0.0000   0.0000   0.0980
 -10.700  -0.2879   0.13726   0.13267  -0.0366  1.0000  0.0697  -1.5934   0.0000   0.0000   0.0000   0.1016
 -10.600  -0.2879   0.13649   0.13192  -0.0354  1.0000  0.0702  -1.5724   0.0000   0.0000   0.0000   0.1058
 -10.500  -0.2887   0.13585   0.13130  -0.0343  1.0000  0.0707  -1.5570   0.0000   0.0000   0.0000   0.1102
 -10.400  -0.2902   0.13529   0.13076  -0.0333  1.0000  0.0712  -1.5452   0.0000   0.0000   0.0000   0.1146
 -10.300  -0.2919   0.13475   0.13026  -0.0324  1.0000  0.0717  -1.5360   0.0000   0.0000   0.0000   0.1189
 -10.200  -0.2939   0.13424   0.12977  -0.0315  1.0000  0.0722  -1.5288   0.0000   0.0000   0.0000   0.1230
 -10.100  -0.2961   0.13373   0.12929  -0.0306  1.0000  0.0727  -1.5233   0.0000   0.0000   0.0000   0.1270
 -10.000  -0.2983   0.13322   0.12880  -0.0299  1.0000  0.0732  -1.5192   0.0000   0.0000   0.0000   0.1307
  -9.900  -0.3007   0.13271   0.12832  -0.0291  1.0000  0.0738  -1.5165   0.0000   0.0000   0.0000   0.1343
  -9.800  -0.3032   0.13219   0.12782  -0.0284  1.0000  0.0744  -1.5149   0.0000   0.0000   0.0000   0.1378
  -9.700  -0.3058   0.13167   0.12732  -0.0278  1.0000  0.0750  -1.5146   0.0000   0.0000   0.0000   0.1411
  -9.600  -0.3084   0.13114   0.12682  -0.0272  1.0000  0.0756  -1.5153   0.0000   0.0000   0.0000   0.1442
  -9.500  -0.3095   0.13041   0.12611  -0.0270  0.9998  0.0764  -1.5158   0.0000   0.0000   0.0000   0.1452
  -9.400  -0.3029   0.12880   0.12449  -0.0291  0.9984  0.0778  -1.5124   0.0000   0.0000   0.0000   0.1361
  -9.300  -0.2972   0.12725   0.12294  -0.0313  0.9967  0.0794  -1.5168   0.0000   0.0000   0.0000   0.1264
  -9.200  -0.2931   0.12583   0.12153  -0.0341  0.9948  0.0811  -1.5361   0.0000   0.0000   0.0000   0.1155
  -9.100  -0.2932   0.12488   0.12059  -0.0381  0.9921  0.0828  -1.5932   0.0000   0.0000   0.0000   0.1021
  -9.000  -0.2963   0.12436   0.12009  -0.0428  0.9890  0.0838  -1.6731   0.0000   0.0000   0.0000   0.0877
  -8.900  -0.2974   0.12358   0.11933  -0.0463  0.9858  0.0842  -1.7272   0.0000   0.0000   0.0000   0.0766
  -8.800  -0.2971   0.12248   0.11824  -0.0499  0.9833  0.0844  -1.7731   0.0000   0.0000   0.0000   0.0647
  -8.700  -0.2987   0.12145   0.11722  -0.0520  0.9800  0.0846  -1.8086   0.0000   0.0000   0.0000   0.0588
  -8.600  -0.2731   0.11557   0.11132  -0.0480  0.9828  0.0867  -1.6473   0.0000   0.0000   0.0000   0.0552
  -8.500  -0.2605   0.11399   0.10973  -0.0470  0.9815  0.0881  -1.5886   0.0000   0.0000   0.0000   0.0497
  -8.400  -0.2514   0.11269   0.10837  -0.0471  0.9797  0.0897  -1.5553   0.0000   0.0000   0.0000   0.0424
  -8.300  -0.2439   0.11141   0.10708  -0.0478  0.9778  0.0915  -1.5405   0.0000   0.0000   0.0000   0.0332
  -8.200  -0.2373   0.11007   0.10574  -0.0491  0.9760  0.0935  -1.5374   0.0000   0.0000   0.0000   0.0219
  -8.100  -0.2314   0.10867   0.10434  -0.0509  0.9744  0.0958  -1.5454   0.0000   0.0000   0.0000   0.0084
  -8.000  -0.2292   0.10748   0.10316  -0.0525  0.9718  0.0980  -1.5650   0.0000   0.0000   0.0000  -0.0006
  -7.900  -0.2314   0.10660   0.10230  -0.0543  0.9680  0.1001  -1.6017   0.0000   0.0000   0.0000  -0.0058
  -7.800  -0.2385   0.10621   0.10194  -0.0587  0.9640  0.1022  -1.6816   0.0000   0.0000   0.0000  -0.0162
  -7.700  -0.2460   0.10588   0.10163  -0.0613  0.9598  0.1029  -1.7419   0.0000   0.0000   0.0000  -0.0183
  -7.600  -0.2536   0.10546   0.10125  -0.0621  0.9549  0.1031  -1.7828   0.0000   0.0000   0.0000  -0.0134
  -7.500  -0.2567   0.10427   0.10013  -0.0655  0.9512  0.1034  -1.8400   0.0000   0.0000   0.0000  -0.0234
  -7.400  -0.2517   0.10198   0.09784  -0.0714  0.9486  0.1036  -1.9016   0.0000   0.0000   0.0000  -0.0518
  -7.300  -0.2334   0.09786   0.09367  -0.0637  0.9510  0.1061  -1.7886   0.0000   0.0000   0.0000  -0.0429
  -7.200  -0.2110   0.09628   0.09204  -0.0621  0.9513  0.1095  -1.7128   0.0000   0.0000   0.0000  -0.0658
  -7.100  -0.2009   0.09502   0.09077  -0.0628  0.9500  0.1129  -1.7028   0.0000   0.0000   0.0000  -0.0851
  -7.000  -0.1954   0.09368   0.08943  -0.0647  0.9483  0.1167  -1.7211   0.0000   0.0000   0.0000  -0.1041
  -6.900  -0.2041   0.09342   0.08921  -0.0632  0.9425  0.1175  -1.7385   0.0000   0.0000   0.0000  -0.0812
  -6.800  -0.2089   0.09261   0.08841  -0.0645  0.9383  0.1199  -1.7755   0.0000   0.0000   0.0000  -0.0795
  -6.700  -0.2177   0.09107   0.08691  -0.0751  0.9317  0.1235  -1.9041   0.0000   0.0000   0.0000  -0.1146
  -6.600  -0.2273   0.08961   0.08547  -0.0797  0.9238  0.1240  -1.9754   0.0000   0.0000   0.0000  -0.1188
  -6.500  -0.1875   0.08761   0.08341  -0.0691  0.9330  0.1321  -1.7941   0.0000   0.0000   0.0000  -0.1411
  -6.400  -0.1978   0.08759   0.08343  -0.0666  0.9264  0.1326  -1.8026   0.0000   0.0000   0.0000  -0.1073
  -6.300  -0.1922   0.08684   0.08267  -0.0669  0.9233  0.1377  -1.7882   0.0000   0.0000   0.0000  -0.1194
  -6.200  -0.1922   0.08170   0.07747  -0.0929  0.9144  0.1464  -2.0257   0.0000   0.0000   0.0000  -0.2535
  -5.800  -0.1764   0.05814   0.05347  -0.1125  0.9021  0.0884  -2.5678   0.0000   0.0000   0.0000  -0.4105
  -5.700  -0.1659   0.05865   0.05406  -0.1108  0.9005  0.0908  -2.4665   0.0000   0.0000   0.0000  -0.4417
  -5.600  -0.1526   0.05986   0.05532  -0.1111  0.8989  0.1085  -2.3202   0.0000   0.0000   0.0000  -0.5029
  -5.500  -0.1389   0.05909   0.05454  -0.1120  0.8978  0.1104  -2.2576   0.0000   0.0000   0.0000  -0.5830
  -5.400  -0.1218   0.05746   0.05283  -0.1153  0.8968  0.1126  -2.2139   0.0000   0.0000   0.0000  -0.7271
  -5.300  -0.1344   0.07552   0.07131  -0.0828  0.8951  0.1919  -1.6667   0.0000   0.0000   0.0000  -0.3916
  -5.200  -0.1467   0.07556   0.07138  -0.0796  0.8892  0.1913  -1.6751   0.0000   0.0000   0.0000  -0.3153
  -5.000  -0.0855   0.05390   0.04884  -0.1261  0.8831  0.1488  -2.0769   0.0000   0.0000   0.0000  -1.2644
  -4.900  -0.0738   0.05252   0.04749  -0.1268  0.8817  0.1499  -2.0258   0.0000   0.0000   0.0000  -1.5141
  -4.800  -0.0619   0.05164   0.04667  -0.1270  0.8803  0.1515  -1.9635   0.0000   0.0000   0.0000  -1.8538
  -4.700  -0.0516   0.05155   0.04665  -0.1260  0.8789  0.1543  -1.8864   0.0000   0.0000   0.0000  -2.2522
  -4.600  -0.0382   0.05222   0.04736  -0.1262  0.8775  0.1756  -1.7772   0.0000   0.0000   0.0000  -3.1381
  -4.500  -0.0297   0.05283   0.04809  -0.1233  0.8764  0.1794  -1.6885   0.0000   0.0000   0.0000  -4.0092
  -4.400  -0.0341   0.05323   0.04839  -0.1240  0.8694  0.1992  -1.6775   0.0000   0.0000   0.0000  -3.4762
  -4.300  -0.0344   0.05328   0.04855  -0.1209  0.8658  0.2008  -1.6330   0.0000   0.0000   0.0000  -3.3454
  -4.200  -0.0315   0.05367   0.04903  -0.1177  0.8630  0.2034  -1.5724   0.0000   0.0000   0.0000  -3.5813
  -4.100  -0.0269   0.05454   0.04998  -0.1140  0.8607  0.2084  -1.4995   0.0000   0.0000   0.0000  -4.0951
  -4.000   0.1845   0.03160   0.02335  -0.1667  0.8766  0.0746  -1.7217   0.0000   0.0000   0.0000   1.1712
  -3.800   0.1925   0.03154   0.02322  -0.1648  0.8675  0.0745  -1.6524   0.0000   0.0000   0.0000   1.1225
  -3.700   0.2065   0.03118   0.02281  -0.1654  0.8648  0.0745  -1.5909   0.0000   0.0000   0.0000   1.0660
  -3.600   0.2223   0.03077   0.02236  -0.1662  0.8628  0.0748  -1.5238   0.0000   0.0000   0.0000   1.0113
  -3.500   0.2392   0.03035   0.02191  -0.1672  0.8610  0.0752  -1.4912   0.0000   0.0000   0.0000   0.9612
  -3.400   0.2567   0.02993   0.02147  -0.1682  0.8596  0.0759  -1.4615   0.0000   0.0000   0.0000   0.9164
  -3.300   0.2748   0.02953   0.02099  -0.1693  0.8583  0.0767  -1.4309   0.0000   0.0000   0.0000   0.8765
  -3.200   0.2932   0.02914   0.02060  -0.1705  0.8572  0.0779  -1.4001   0.0000   0.0000   0.0000   0.8408
  -3.100   0.3123   0.02876   0.02021  -0.1718  0.8563  0.0795  -1.3693   0.0000   0.0000   0.0000   0.8086
  -3.000   0.3322   0.02839   0.01982  -0.1733  0.8555  0.0816  -1.3391   0.0000   0.0000   0.0000   0.7793
  -2.900   0.3524   0.02805   0.01943  -0.1748  0.8547  0.0842  -1.3109   0.0000   0.0000   0.0000   0.7530
  -2.800   0.3762   0.02746   0.01889  -0.1773  0.8542  0.0900  -1.2822   0.0000   0.0000   0.0000   0.7277
  -2.700   0.4000   0.02700   0.01839  -0.1796  0.8536  0.1004  -1.2581   0.0000   0.0000   0.0000   0.7049
  -2.600   0.4442   0.02509   0.01744  -0.1877  0.8540  0.2920  -1.2422   0.0000   0.0000   0.0000   0.6777
  -2.400   0.4444   0.02594   0.01862  -0.1848  0.8417  0.3999  -1.2204   0.0000   0.0000   0.0000   0.6706
  -2.300   0.4597   0.02593   0.01865  -0.1853  0.8393  0.4413  -1.1798   0.0000   0.0000   0.0000   0.6573
  -2.200   0.4765   0.02590   0.01859  -0.1859  0.8374  0.4701  -1.1326   0.0000   0.0000   0.0000   0.6441
  -2.100   0.4936   0.02580   0.01847  -0.1865  0.8359  0.4845  -1.0833   0.0000   0.0000   0.0000   0.6314
  -2.000   0.5138   0.02566   0.01821  -0.1878  0.8346  0.4992  -1.0284   0.0000   0.0000   0.0000   0.6189
  -1.900   0.5307   0.02555   0.01810  -0.1884  0.8333  0.5086  -0.9773   0.0000   0.0000   0.0000   0.6079
  -1.800   0.5486   0.02543   0.01795  -0.1891  0.8321  0.5191  -0.9245   0.0000   0.0000   0.0000   0.5974
  -1.700   0.5683   0.02530   0.01771  -0.1904  0.8310  0.5316  -0.8683   0.0000   0.0000   0.0000   0.5874
  -1.600   0.5841   0.02523   0.01762  -0.1906  0.8300  0.5416  -0.8256   0.0000   0.0000   0.0000   0.5784
  -1.400   0.5750   0.02655   0.01900  -0.1859  0.8161  0.5503  -0.8216   0.0000   0.0000   0.0000   0.5752
  -1.300   0.5911   0.02660   0.01898  -0.1866  0.8141  0.5654  -0.8340   0.0000   0.0000   0.0000   0.5673
  -1.200   0.6016   0.02663   0.01909  -0.1858  0.8122  0.5753  -0.8436   0.0000   0.0000   0.0000   0.5603
  -1.100   0.6139   0.02671   0.01920  -0.1853  0.8105  0.5908  -0.8543   0.0000   0.0000   0.0000   0.5531
  -1.000   0.6245   0.02678   0.01932  -0.1844  0.8089  0.6053  -0.8641   0.0000   0.0000   0.0000   0.5463
  -0.900   0.6346   0.02690   0.01948  -0.1833  0.8074  0.6216  -0.8738   0.0000   0.0000   0.0000   0.5396
  -0.800   0.6448   0.02695   0.01958  -0.1821  0.8062  0.6365  -0.8836   0.0000   0.0000   0.0000   0.5331
  -0.700   0.6536   0.02705   0.01972  -0.1806  0.8049  0.6507  -0.8926   0.0000   0.0000   0.0000   0.5267
  -0.500   0.6438   0.02862   0.02133  -0.1764  0.7910  0.6624  -0.8870   0.0000   0.0000   0.0000   0.5241
  -0.400   0.6474   0.02870   0.02149  -0.1742  0.7883  0.6707  -0.8922   0.0000   0.0000   0.0000   0.5190
  -0.300   0.6570   0.02872   0.02151  -0.1731  0.7863  0.6823  -0.9013   0.0000   0.0000   0.0000   0.5133
  -0.200   0.6727   0.02861   0.02137  -0.1735  0.7847  0.6934  -0.9140   0.0000   0.0000   0.0000   0.5076
  -0.100   0.6834   0.02840   0.02119  -0.1727  0.7831  0.6992  -0.9239   0.0000   0.0000   0.0000   0.5021
   0.000   0.6986   0.02814   0.02091  -0.1728  0.7817  0.7046  -0.9367   0.0000   0.0000   0.0000   0.4966


