xflr5 v6.59

 Calculated polar for: WORTMANN FX 63-137 AIRFOIL

 1 1 Reynolds number fixed          Mach number fixed         

 xtrf =   1.000 (top)        1.000 (bottom)
 Mach =   0.000     Re =     4.800 e 6     Ncrit =   9.000

  alpha     CL        CD       CDp       Cm    Top Xtr Bot Xtr   Cpmin    Chinge    XCp    
 ------- -------- --------- --------- -------- ------- ------- -------- --------- ---------
 -15.900  -0.6663   0.05317   0.05101  -0.1407  0.8994  0.0042  -13.4359   0.0000   0.0000   0.0000   0.0082
 -15.800  -0.6999   0.04706   0.04491  -0.1447  0.9281  0.0042  -13.9315   0.0000   0.0000   0.0000   0.0140
 -15.700  -0.7063   0.04343   0.04106  -0.1496  0.8904  0.0042  -14.0611   0.0000   0.0000   0.0000   0.0095
 -15.600  -0.7147   0.04057   0.03809  -0.1524  0.8746  0.0042  -14.1680   0.0000   0.0000   0.0000   0.0086
 -15.500  -0.7173   0.03882   0.03624  -0.1541  0.8560  0.0042  -14.1711   0.0000   0.0000   0.0000   0.0074
 -15.400  -0.7228   0.03663   0.03396  -0.1562  0.8445  0.0042  -14.2178   0.0000   0.0000   0.0000   0.0066
 -15.300  -0.7253   0.03498   0.03223  -0.1577  0.8309  0.0042  -14.2135   0.0000   0.0000   0.0000   0.0057
 -15.200  -0.7270   0.03340   0.03060  -0.1592  0.8224  0.0042  -14.1960   0.0000   0.0000   0.0000   0.0046
 -15.100  -0.7280   0.03206   0.02918  -0.1604  0.8088  0.0043  -14.1624   0.0000   0.0000   0.0000   0.0036
 -15.000  -0.7286   0.03070   0.02776  -0.1616  0.8001  0.0043  -14.1250   0.0000   0.0000   0.0000   0.0024
 -14.900  -0.7278   0.02956   0.02658  -0.1626  0.7938  0.0043  -14.0647   0.0000   0.0000   0.0000   0.0011
 -14.800  -0.7275   0.02836   0.02534  -0.1637  0.7873  0.0043  -14.0113   0.0000   0.0000   0.0000  -0.0001
 -14.700  -0.7255   0.02744   0.02437  -0.1644  0.7795  0.0043  -13.9320   0.0000   0.0000   0.0000  -0.0014
 -14.600  -0.7246   0.02633   0.02323  -0.1653  0.7764  0.0043  -13.8679   0.0000   0.0000   0.0000  -0.0027
 -14.500  -0.7224   0.02549   0.02237  -0.1659  0.7738  0.0043  -13.7819   0.0000   0.0000   0.0000  -0.0038
 -14.400  -0.7216   0.02461   0.02146  -0.1664  0.7692  0.0043  -13.7121   0.0000   0.0000   0.0000  -0.0045
 -14.300  -0.7175   0.02383   0.02063  -0.1673  0.7602  0.0043  -13.6091   0.0000   0.0000   0.0000  -0.0068
 -14.200  -0.7124   0.02307   0.01981  -0.1683  0.7496  0.0043  -13.4954   0.0000   0.0000   0.0000  -0.0098
 -14.100  -0.7061   0.02226   0.01897  -0.1696  0.7456  0.0043  -13.3730   0.0000   0.0000   0.0000  -0.0136
 -14.000  -0.6998   0.02134   0.01798  -0.1712  0.7392  0.0043  -13.2601   0.0000   0.0000   0.0000  -0.0178
 -13.900  -0.6915   0.02073   0.01735  -0.1724  0.7352  0.0043  -13.1125   0.0000   0.0000   0.0000  -0.0224
 -13.800  -0.6825   0.02012   0.01671  -0.1737  0.7316  0.0043  -12.9588   0.0000   0.0000   0.0000  -0.0275
 -13.700  -0.6728   0.01958   0.01614  -0.1750  0.7284  0.0044  -12.7968   0.0000   0.0000   0.0000  -0.0331
 -13.600  -0.6623   0.01905   0.01560  -0.1763  0.7253  0.0044  -12.6287   0.0000   0.0000   0.0000  -0.0392
 -13.500  -0.6514   0.01859   0.01513  -0.1776  0.7225  0.0044  -12.4544   0.0000   0.0000   0.0000  -0.0457
 -13.400  -0.6400   0.01818   0.01470  -0.1789  0.7209  0.0044  -12.2745   0.0000   0.0000   0.0000  -0.0525
 -13.300  -0.6283   0.01783   0.01436  -0.1800  0.7204  0.0044  -12.0899   0.0000   0.0000   0.0000  -0.0596
 -13.200  -0.6167   0.01759   0.01412  -0.1808  0.7196  0.0044  -11.9016   0.0000   0.0000   0.0000  -0.0664
 -13.100  -0.6053   0.01748   0.01403  -0.1813  0.7181  0.0045  -11.7088   0.0000   0.0000   0.0000  -0.0727
 -13.000  -0.5941   0.01761   0.01420  -0.1811  0.7150  0.0045  -11.5051   0.0000   0.0000   0.0000  -0.0781
 -12.900  -0.5844   0.01870   0.01539  -0.1782  0.7019  0.0045  -11.2628   0.0000   0.0000   0.0000  -0.0784
  -6.600   0.1436   0.00859   0.00240  -0.2007  0.3040  0.0060  -3.4901   0.0000   0.0000   0.0000   1.6839
  -6.500   0.1554   0.00858   0.00238  -0.2008  0.3003  0.0060  -3.4182   0.0000   0.0000   0.0000   1.5758
  -6.400   0.1671   0.00858   0.00236  -0.2009  0.2966  0.0059  -3.3469   0.0000   0.0000   0.0000   1.4831
  -6.300   0.1787   0.00858   0.00234  -0.2010  0.2927  0.0059  -3.2755   0.0000   0.0000   0.0000   1.4025
  -6.200   0.1905   0.00858   0.00232  -0.2011  0.2886  0.0058  -3.2038   0.0000   0.0000   0.0000   1.3315
  -6.100   0.2023   0.00857   0.00230  -0.2012  0.2845  0.0058  -3.1314   0.0000   0.0000   0.0000   1.2685
  -6.000   0.2141   0.00856   0.00229  -0.2013  0.2803  0.0058  -3.0581   0.0000   0.0000   0.0000   1.2124
  -5.900   0.2260   0.00855   0.00227  -0.2015  0.2785  0.0058  -2.9829   0.0000   0.0000   0.0000   1.1621
  -5.800   0.2378   0.00854   0.00227  -0.2016  0.2779  0.0058  -2.9052   0.0000   0.0000   0.0000   1.1169
  -5.700   0.2495   0.00854   0.00228  -0.2017  0.2772  0.0057  -2.8157   0.0000   0.0000   0.0000   1.0763
  -5.600   0.2597   0.00867   0.00249  -0.2014  0.2764  0.0058  -2.6419   0.0000   0.0000   0.0000   1.0427
  -5.500   0.2715   0.00865   0.00248  -0.2016  0.2753  0.0057  -2.5744   0.0000   0.0000   0.0000   1.0083
  -5.400   0.2835   0.00863   0.00246  -0.2017  0.2750  0.0056  -2.5096   0.0000   0.0000   0.0000   0.9765
  -5.200   0.3058   0.00872   0.00247  -0.2018  0.2501  0.0055  -2.3903   0.0000   0.0000   0.0000   0.9229
  -5.100   0.3176   0.00871   0.00244  -0.2019  0.2470  0.0055  -2.3313   0.0000   0.0000   0.0000   0.8980
  -5.000   0.3294   0.00871   0.00242  -0.2020  0.2440  0.0054  -2.2739   0.0000   0.0000   0.0000   0.8749
  -4.900   0.3412   0.00871   0.00239  -0.2021  0.2411  0.0054  -2.2179   0.0000   0.0000   0.0000   0.8535
  -4.800   0.3530   0.00870   0.00237  -0.2022  0.2382  0.0053  -2.1632   0.0000   0.0000   0.0000   0.8334
  -4.700   0.3648   0.00870   0.00234  -0.2024  0.2352  0.0053  -2.1097   0.0000   0.0000   0.0000   0.8146
  -4.600   0.3767   0.00868   0.00232  -0.2025  0.2322  0.0052  -2.0574   0.0000   0.0000   0.0000   0.7969
  -4.500   0.3887   0.00867   0.00229  -0.2027  0.2291  0.0052  -2.0064   0.0000   0.0000   0.0000   0.7803
  -4.400   0.4006   0.00865   0.00225  -0.2028  0.2251  0.0052  -1.9577   0.0000   0.0000   0.0000   0.7646
  -4.300   0.4127   0.00863   0.00222  -0.2030  0.2226  0.0051  -1.9093   0.0000   0.0000   0.0000   0.7498
  -4.200   0.4247   0.00861   0.00219  -0.2031  0.2219  0.0051  -1.8628   0.0000   0.0000   0.0000   0.7358
  -4.100   0.4368   0.00859   0.00215  -0.2033  0.2214  0.0050  -1.8186   0.0000   0.0000   0.0000   0.7226
  -4.000   0.4494   0.00853   0.00206  -0.2036  0.2210  0.0050  -1.8212   0.0000   0.0000   0.0000   0.7097
  -3.900   0.4614   0.00851   0.00204  -0.2037  0.2205  0.0050  -1.7851   0.0000   0.0000   0.0000   0.6979
  -3.800   0.4734   0.00850   0.00202  -0.2039  0.2199  0.0050  -1.7427   0.0000   0.0000   0.0000   0.6867
  -3.700   0.4853   0.00849   0.00201  -0.2040  0.2192  0.0050  -1.6993   0.0000   0.0000   0.0000   0.6760
  -3.600   0.4972   0.00848   0.00200  -0.2042  0.2183  0.0050  -1.6567   0.0000   0.0000   0.0000   0.6659
  -3.500   0.5091   0.00847   0.00199  -0.2043  0.2181  0.0052  -1.6234   0.0000   0.0000   0.0000   0.6562
  -3.400   0.5209   0.00849   0.00201  -0.2045  0.2051  0.0139  -1.6236   0.0000   0.0000   0.0000   0.6472
  -3.300   0.5320   0.00854   0.00203  -0.2045  0.1949  0.0143  -1.5642   0.0000   0.0000   0.0000   0.6387
  -3.200   0.5437   0.00856   0.00204  -0.2046  0.1929  0.0146  -1.5036   0.0000   0.0000   0.0000   0.6304
  -3.100   0.5552   0.00857   0.00204  -0.2046  0.1909  0.0149  -1.4431   0.0000   0.0000   0.0000   0.6224
  -3.000   0.5668   0.00859   0.00205  -0.2047  0.1890  0.0151  -1.3826   0.0000   0.0000   0.0000   0.6148
  -2.900   0.5783   0.00862   0.00206  -0.2048  0.1870  0.0153  -1.3223   0.0000   0.0000   0.0000   0.6075
  -2.800   0.5898   0.00864   0.00207  -0.2048  0.1851  0.0155  -1.2624   0.0000   0.0000   0.0000   0.6004
  -2.700   0.6013   0.00866   0.00207  -0.2049  0.1832  0.0156  -1.2036   0.0000   0.0000   0.0000   0.5937
  -2.600   0.6129   0.00867   0.00208  -0.2050  0.1812  0.0157  -1.1477   0.0000   0.0000   0.0000   0.5871
  -2.500   0.6246   0.00868   0.00208  -0.2051  0.1788  0.0158  -1.0970   0.0000   0.0000   0.0000   0.5808
  -2.400   0.6363   0.00869   0.00208  -0.2052  0.1736  0.0156  -1.0581   0.0000   0.0000   0.0000   0.5747
  -2.300   0.6477   0.00872   0.00208  -0.2052  0.1665  0.0153  -1.0227   0.0000   0.0000   0.0000   0.5689
  -2.200   0.6594   0.00873   0.00209  -0.2053  0.1662  0.0154  -0.9698   0.0000   0.0000   0.0000   0.5632
  -2.100   0.6698   0.00885   0.00215  -0.2052  0.1499  0.0156  -0.9278   0.0000   0.0000   0.0000   0.5580
  -2.000   0.6812   0.00888   0.00217  -0.2052  0.1453  0.0157  -0.9364   0.0000   0.0000   0.0000   0.5527
  -1.900   0.6927   0.00891   0.00218  -0.2053  0.1438  0.0158  -0.9451   0.0000   0.0000   0.0000   0.5476
  -1.800   0.7042   0.00893   0.00219  -0.2054  0.1422  0.0159  -0.9537   0.0000   0.0000   0.0000   0.5427
  -1.700   0.7156   0.00896   0.00220  -0.2054  0.1407  0.0160  -0.9635   0.0000   0.0000   0.0000   0.5379
  -1.600   0.7270   0.00898   0.00222  -0.2055  0.1393  0.0161  -0.9737   0.0000   0.0000   0.0000   0.5333
  -1.500   0.7385   0.00901   0.00223  -0.2055  0.1378  0.0162  -0.9839   0.0000   0.0000   0.0000   0.5288
  -1.400   0.7500   0.00903   0.00225  -0.2056  0.1363  0.0163  -0.9942   0.0000   0.0000   0.0000   0.5245
  -1.300   0.7614   0.00906   0.00226  -0.2056  0.1348  0.0164  -1.0045   0.0000   0.0000   0.0000   0.5203
  -1.200   0.7730   0.00908   0.00227  -0.2057  0.1333  0.0164  -1.0148   0.0000   0.0000   0.0000   0.5162
  -1.100   0.7845   0.00910   0.00229  -0.2058  0.1317  0.0165  -1.0251   0.0000   0.0000   0.0000   0.5122
  -1.000   0.7960   0.00912   0.00230  -0.2058  0.1300  0.0165  -1.0354   0.0000   0.0000   0.0000   0.5083
  -0.900   0.8075   0.00914   0.00232  -0.2059  0.1284  0.0166  -1.0458   0.0000   0.0000   0.0000   0.5045
  -0.800   0.8190   0.00916   0.00233  -0.2060  0.1264  0.0166  -1.0561   0.0000   0.0000   0.0000   0.5009
  -0.700   0.8305   0.00918   0.00235  -0.2060  0.1241  0.0166  -1.0665   0.0000   0.0000   0.0000   0.4973
  -0.600   0.8419   0.00920   0.00237  -0.2061  0.1236  0.0166  -1.0769   0.0000   0.0000   0.0000   0.4938
  -0.500   0.8534   0.00922   0.00239  -0.2062  0.1232  0.0167  -1.0873   0.0000   0.0000   0.0000   0.4905
  -0.400   0.8649   0.00924   0.00241  -0.2062  0.1229  0.0167  -1.0977   0.0000   0.0000   0.0000   0.4872
  -0.300   0.8763   0.00926   0.00242  -0.2063  0.1226  0.0168  -1.1081   0.0000   0.0000   0.0000   0.4840
  -0.200   0.8878   0.00928   0.00244  -0.2063  0.1223  0.0170  -1.1185   0.0000   0.0000   0.0000   0.4809
  -0.100   0.8993   0.00930   0.00246  -0.2064  0.1219  0.0171  -1.1290   0.0000   0.0000   0.0000   0.4778


