xflr5 v6.59

 Calculated polar for: WORTMANN FX 63-137 AIRFOIL

 1 1 Reynolds number fixed          Mach number fixed         

 xtrf =   1.000 (top)        1.000 (bottom)
 Mach =   0.000     Re =     2.200 e 6     Ncrit =   9.000

  alpha     CL        CD       CDp       Cm    Top Xtr Bot Xtr   Cpmin    Chinge    XCp    
 ------- -------- --------- --------- -------- ------- ------- -------- --------- ---------
 -16.900  -0.3031   0.18811   0.18679  -0.0418  0.9974  0.0045  -1.5143   0.0000   0.0000   0.0000   0.0768
 -16.800  -0.2963   0.18623   0.18490  -0.0437  0.9969  0.0045  -1.5171   0.0000   0.0000   0.0000   0.0667
 -16.700  -0.2898   0.18438   0.18305  -0.0455  0.9965  0.0045  -1.5202   0.0000   0.0000   0.0000   0.0565
 -16.600  -0.2835   0.18257   0.18123  -0.0472  0.9961  0.0045  -1.5236   0.0000   0.0000   0.0000   0.0463
 -16.500  -0.2775   0.18080   0.17946  -0.0488  0.9957  0.0045  -1.5273   0.0000   0.0000   0.0000   0.0362
 -16.400  -0.2737   0.17930   0.17796  -0.0496  0.9950  0.0045  -1.5318   0.0000   0.0000   0.0000   0.0304
 -16.300  -0.2696   0.17778   0.17644  -0.0505  0.9943  0.0045  -1.5365   0.0000   0.0000   0.0000   0.0240
 -16.200  -0.2656   0.17625   0.17492  -0.0514  0.9934  0.0045  -1.5413   0.0000   0.0000   0.0000   0.0172
 -16.100  -0.2612   0.17468   0.17334  -0.0525  0.9922  0.0045  -1.5463   0.0000   0.0000   0.0000   0.0095
 -16.000  -0.2572   0.17318   0.17183  -0.0534  0.9912  0.0045  -1.5517   0.0000   0.0000   0.0000   0.0025
 -15.900  -0.2541   0.17178   0.17044  -0.0540  0.9900  0.0045  -1.5574   0.0000   0.0000   0.0000  -0.0028
 -15.800  -0.2522   0.17056   0.16921  -0.0542  0.9886  0.0045  -1.5638   0.0000   0.0000   0.0000  -0.0051
 -15.700  -0.2499   0.16927   0.16793  -0.0545  0.9868  0.0045  -1.5703   0.0000   0.0000   0.0000  -0.0085
 -15.600  -0.2475   0.16797   0.16663  -0.0549  0.9847  0.0045  -1.5770   0.0000   0.0000   0.0000  -0.0122
 -15.500  -0.2452   0.16668   0.16534  -0.0552  0.9823  0.0045  -1.5840   0.0000   0.0000   0.0000  -0.0159
 -15.400  -0.2423   0.16531   0.16397  -0.0558  0.9799  0.0045  -1.5911   0.0000   0.0000   0.0000  -0.0210
 -15.300  -0.2373   0.16361   0.16227  -0.0571  0.9731  0.0045  -1.5981   0.0000   0.0000   0.0000  -0.0320
 -15.200  -0.2252   0.16094   0.15958  -0.0608  0.9671  0.0045  -1.6043   0.0000   0.0000   0.0000  -0.0642
 -15.100  -0.2116   0.15809   0.15671  -0.0652  0.9627  0.0045  -1.6111   0.0000   0.0000   0.0000  -0.1049
 -15.000  -0.1975   0.15519   0.15379  -0.0697  0.9599  0.0045  -1.6191   0.0000   0.0000   0.0000  -0.1538
 -14.900  -0.1831   0.15229   0.15086  -0.0744  0.9565  0.0045  -1.6286   0.0000   0.0000   0.0000  -0.2118
 -14.800  -0.1684   0.14939   0.14792  -0.0793  0.9524  0.0045  -1.6407   0.0000   0.0000   0.0000  -0.2810
 -14.700  -0.1533   0.14638   0.14488  -0.0843  0.9479  0.0045  -1.6575   0.0000   0.0000   0.0000  -0.3669
 -14.600  -0.1384   0.14310   0.14156  -0.0895  0.9428  0.0045  -1.6976   0.0000   0.0000   0.0000  -0.4718
 -13.900  -0.5568   0.06722   0.06561  -0.1004  0.9918  0.0068  -9.7382   0.0000   0.0000   0.0000   0.0429
 -13.800  -0.5967   0.05763   0.05591  -0.1081  0.9910  0.0067  -10.4244   0.0000   0.0000   0.0000   0.0433
 -13.700  -0.6181   0.05151   0.04970  -0.1134  0.9891  0.0067  -10.7765   0.0000   0.0000   0.0000   0.0417
 -13.600  -0.6319   0.04697   0.04508  -0.1177  0.9861  0.0067  -10.9913   0.0000   0.0000   0.0000   0.0396
 -13.500  -0.6399   0.04273   0.04076  -0.1229  0.9836  0.0066  -11.1415   0.0000   0.0000   0.0000   0.0344
 -13.400  -0.6485   0.04003   0.03801  -0.1251  0.9779  0.0066  -11.2324   0.0000   0.0000   0.0000   0.0340
 -13.300  -0.6524   0.03703   0.03493  -0.1289  0.9724  0.0067  -11.2959   0.0000   0.0000   0.0000   0.0298
 -13.200  -0.6521   0.03419   0.03200  -0.1333  0.9644  0.0067  -11.3175   0.0000   0.0000   0.0000   0.0232
 -13.100  -0.6402   0.03082   0.02851  -0.1411  0.9577  0.0067  -11.2675   0.0000   0.0000   0.0000   0.0072
 -13.000  -0.6153   0.02735   0.02488  -0.1517  0.9500  0.0067  -11.1193   0.0000   0.0000   0.0000  -0.0195
 -12.900  -0.5801   0.02427   0.02160  -0.1637  0.9392  0.0068  -10.8829   0.0000   0.0000   0.0000  -0.0560
 -12.800  -0.5556   0.02228   0.01939  -0.1713  0.9160  0.0068  -10.6920   0.0000   0.0000   0.0000  -0.0828
 -12.700  -0.5470   0.02113   0.01808  -0.1740  0.8930  0.0068  -10.5915   0.0000   0.0000   0.0000  -0.0925
 -12.600  -0.5403   0.02015   0.01696  -0.1759  0.8765  0.0068  -10.4988   0.0000   0.0000   0.0000  -0.0999
 -12.500  -0.5317   0.01919   0.01589  -0.1781  0.8628  0.0068  -10.3907   0.0000   0.0000   0.0000  -0.1092
 -12.400  -0.5227   0.01834   0.01492  -0.1801  0.8491  0.0068  -10.2768   0.0000   0.0000   0.0000  -0.1188
 -12.300  -0.5128   0.01762   0.01408  -0.1817  0.8384  0.0068  -10.1518   0.0000   0.0000   0.0000  -0.1288
 -12.200  -0.5041   0.01708   0.01345  -0.1826  0.8285  0.0068  -10.0291   0.0000   0.0000   0.0000  -0.1366
 -12.100  -0.4941   0.01656   0.01285  -0.1835  0.8211  0.0068  -9.8959   0.0000   0.0000   0.0000  -0.1459
 -12.000  -0.4846   0.01612   0.01232  -0.1841  0.8113  0.0068  -9.7654   0.0000   0.0000   0.0000  -0.1545
 -11.900  -0.4751   0.01572   0.01182  -0.1846  0.8027  0.0068  -9.6335   0.0000   0.0000   0.0000  -0.1633
 -11.800  -0.4645   0.01531   0.01135  -0.1853  0.7975  0.0068  -9.4940   0.0000   0.0000   0.0000  -0.1738
 -11.700  -0.4539   0.01494   0.01091  -0.1859  0.7923  0.0068  -9.3543   0.0000   0.0000   0.0000  -0.1847
 -11.600  -0.4431   0.01460   0.01048  -0.1864  0.7880  0.0068  -9.2141   0.0000   0.0000   0.0000  -0.1960
 -11.500  -0.4325   0.01428   0.01009  -0.1869  0.7829  0.0068  -9.0736   0.0000   0.0000   0.0000  -0.2077
 -11.400  -0.4216   0.01397   0.00972  -0.1873  0.7779  0.0068  -8.9315   0.0000   0.0000   0.0000  -0.2202
 -11.300  -0.4099   0.01366   0.00936  -0.1879  0.7759  0.0068  -8.7848   0.0000   0.0000   0.0000  -0.2346
 -11.200  -0.3983   0.01337   0.00902  -0.1884  0.7734  0.0067  -8.6383   0.0000   0.0000   0.0000  -0.2496
 -11.100  -0.3867   0.01311   0.00870  -0.1889  0.7699  0.0067  -8.4926   0.0000   0.0000   0.0000  -0.2654
 -11.000  -0.3753   0.01287   0.00840  -0.1893  0.7651  0.0067  -8.3482   0.0000   0.0000   0.0000  -0.2817
 -10.900  -0.3642   0.01265   0.00812  -0.1896  0.7590  0.0067  -8.2060   0.0000   0.0000   0.0000  -0.2984
 -10.800  -0.3533   0.01246   0.00786  -0.1898  0.7518  0.0067  -8.0659   0.0000   0.0000   0.0000  -0.3156
 -10.700  -0.3417   0.01225   0.00761  -0.1902  0.7476  0.0067  -7.9221   0.0000   0.0000   0.0000  -0.3353
 -10.600  -0.3301   0.01206   0.00736  -0.1905  0.7440  0.0066  -7.7781   0.0000   0.0000   0.0000  -0.3567
 -10.500  -0.3184   0.01187   0.00713  -0.1909  0.7401  0.0066  -7.6350   0.0000   0.0000   0.0000  -0.3794
 -10.400  -0.3068   0.01170   0.00690  -0.1912  0.7361  0.0066  -7.4930   0.0000   0.0000   0.0000  -0.4037
 -10.300  -0.2953   0.01154   0.00669  -0.1914  0.7320  0.0066  -7.3521   0.0000   0.0000   0.0000  -0.4297
 -10.200  -0.2837   0.01139   0.00649  -0.1917  0.7276  0.0066  -7.2120   0.0000   0.0000   0.0000  -0.4578
 -10.100  -0.2721   0.01124   0.00629  -0.1920  0.7235  0.0065  -7.0718   0.0000   0.0000   0.0000  -0.4887
 -10.000  -0.2601   0.01109   0.00610  -0.1923  0.7208  0.0065  -6.9310   0.0000   0.0000   0.0000  -0.5233
  -9.900  -0.2480   0.01093   0.00592  -0.1927  0.7200  0.0065  -6.7897   0.0000   0.0000   0.0000  -0.5621
  -9.800  -0.2358   0.01078   0.00574  -0.1930  0.7191  0.0065  -6.6494   0.0000   0.0000   0.0000  -0.6049
  -9.700  -0.2237   0.01063   0.00557  -0.1933  0.7180  0.0065  -6.5100   0.0000   0.0000   0.0000  -0.6523
  -9.600  -0.2115   0.01049   0.00541  -0.1937  0.7167  0.0064  -6.3825   0.0000   0.0000   0.0000  -0.7051
  -9.500  -0.1994   0.01035   0.00525  -0.1940  0.7151  0.0064  -6.2650   0.0000   0.0000   0.0000  -0.7643
  -9.400  -0.1872   0.01022   0.00509  -0.1943  0.7130  0.0064  -6.1485   0.0000   0.0000   0.0000  -0.8311
  -9.300  -0.1752   0.01009   0.00492  -0.1946  0.7096  0.0064  -6.0340   0.0000   0.0000   0.0000  -0.9064
  -9.200  -0.1632   0.00996   0.00477  -0.1949  0.7056  0.0063  -5.9192   0.0000   0.0000   0.0000  -0.9921
  -9.100  -0.1515   0.00985   0.00464  -0.1951  0.7001  0.0063  -5.8061   0.0000   0.0000   0.0000  -1.0889
  -9.000  -0.1402   0.00977   0.00451  -0.1953  0.6913  0.0063  -5.6954   0.0000   0.0000   0.0000  -1.1975
  -8.900  -0.1283   0.00967   0.00438  -0.1955  0.6862  0.0063  -5.5830   0.0000   0.0000   0.0000  -1.3322
  -8.800  -0.1166   0.00958   0.00426  -0.1957  0.6802  0.0063  -5.4721   0.0000   0.0000   0.0000  -1.4916
  -8.700  -0.1051   0.00952   0.00414  -0.1958  0.6733  0.0063  -5.3632   0.0000   0.0000   0.0000  -1.6822
  -8.600  -0.0937   0.00946   0.00404  -0.1959  0.6651  0.0063  -5.2554   0.0000   0.0000   0.0000  -1.9182
  -8.500  -0.0818   0.00938   0.00393  -0.1961  0.6598  0.0062  -5.1461   0.0000   0.0000   0.0000  -2.2347
  -8.400  -0.0697   0.00930   0.00382  -0.1964  0.6573  0.0062  -5.0367   0.0000   0.0000   0.0000  -2.6688
  -8.300  -0.0576   0.00922   0.00372  -0.1966  0.6536  0.0062  -4.9285   0.0000   0.0000   0.0000  -3.2797
  -8.200  -0.0459   0.00917   0.00363  -0.1968  0.6462  0.0062  -4.8225   0.0000   0.0000   0.0000  -4.1828
  -8.100  -0.0347   0.00915   0.00355  -0.1968  0.6353  0.0062  -4.7198   0.0000   0.0000   0.0000  -5.6141
  -8.000  -0.0231   0.00910   0.00346  -0.1970  0.6279  0.0062  -4.6160   0.0000   0.0000   0.0000  -8.5728
  -7.900  -0.0112   0.00905   0.00338  -0.1971  0.6236  0.0062  -4.5118   0.0000   0.0000   0.0000  -17.9664
  -7.800   0.0007   0.00900   0.00330  -0.1973  0.6192  0.0062  -4.4087   0.0000   0.0000   0.0000  299.5870
  -7.700   0.0125   0.00895   0.00323  -0.1975  0.6145  0.0061  -4.3067   0.0000   0.0000   0.0000  16.5869
  -7.600   0.0242   0.00891   0.00316  -0.1976  0.6096  0.0061  -4.2058   0.0000   0.0000   0.0000   8.6757
  -7.500   0.0359   0.00888   0.00309  -0.1978  0.6042  0.0061  -4.1159   0.0000   0.0000   0.0000   5.9271
  -7.400   0.0478   0.00884   0.00302  -0.1979  0.5988  0.0062  -4.0406   0.0000   0.0000   0.0000   4.5188
  -7.300   0.0598   0.00878   0.00295  -0.1981  0.5965  0.0062  -3.9648   0.0000   0.0000   0.0000   3.6589
  -7.200   0.0719   0.00873   0.00288  -0.1983  0.5950  0.0062  -3.8893   0.0000   0.0000   0.0000   3.0870
  -7.100   0.0840   0.00868   0.00282  -0.1985  0.5930  0.0062  -3.8143   0.0000   0.0000   0.0000   2.6807
  -7.000   0.0960   0.00864   0.00276  -0.1987  0.5898  0.0062  -3.7397   0.0000   0.0000   0.0000   2.3782
  -6.900   0.1080   0.00859   0.00269  -0.1989  0.5870  0.0063  -3.6653   0.0000   0.0000   0.0000   2.1427
  -6.800   0.1195   0.00858   0.00265  -0.1990  0.5785  0.0063  -3.5932   0.0000   0.0000   0.0000   1.9600
  -6.700   0.1307   0.00860   0.00261  -0.1990  0.5671  0.0063  -3.5228   0.0000   0.0000   0.0000   1.8136
  -6.600   0.1424   0.00859   0.00257  -0.1991  0.5608  0.0062  -3.4510   0.0000   0.0000   0.0000   1.6853
  -6.500   0.1541   0.00856   0.00252  -0.1993  0.5558  0.0062  -3.3793   0.0000   0.0000   0.0000   1.5762
  -6.400   0.1658   0.00855   0.00248  -0.1994  0.5504  0.0062  -3.3081   0.0000   0.0000   0.0000   1.4832
  -6.300   0.1774   0.00855   0.00245  -0.1995  0.5449  0.0062  -3.2372   0.0000   0.0000   0.0000   1.4027
  -6.200   0.1890   0.00854   0.00242  -0.1996  0.5386  0.0062  -3.1660   0.0000   0.0000   0.0000   1.3320
  -6.100   0.2008   0.00852   0.00238  -0.1997  0.5331  0.0062  -3.0937   0.0000   0.0000   0.0000   1.2686
  -6.000   0.2127   0.00849   0.00235  -0.1999  0.5313  0.0062  -3.0186   0.0000   0.0000   0.0000   1.2117
  -5.900   0.2246   0.00847   0.00233  -0.2000  0.5295  0.0061  -2.9400   0.0000   0.0000   0.0000   1.1610
  -5.800   0.2363   0.00847   0.00232  -0.2001  0.5270  0.0061  -2.8520   0.0000   0.0000   0.0000   1.1160
  -5.600   0.2578   0.00861   0.00250  -0.1999  0.5111  0.0061  -2.6351   0.0000   0.0000   0.0000   1.0425
  -5.500   0.2685   0.00868   0.00251  -0.1999  0.4965  0.0061  -2.5687   0.0000   0.0000   0.0000   1.0102
  -5.400   0.2801   0.00868   0.00249  -0.2000  0.4904  0.0061  -2.5023   0.0000   0.0000   0.0000   0.9789
  -5.300   0.2915   0.00869   0.00248  -0.2000  0.4845  0.0061  -2.4381   0.0000   0.0000   0.0000   0.9502
  -5.200   0.3030   0.00871   0.00246  -0.2001  0.4784  0.0061  -2.3757   0.0000   0.0000   0.0000   0.9237
  -5.100   0.3145   0.00871   0.00244  -0.2002  0.4715  0.0061  -2.3147   0.0000   0.0000   0.0000   0.8990
  -5.000   0.3264   0.00869   0.00241  -0.2003  0.4669  0.0061  -2.2542   0.0000   0.0000   0.0000   0.8756
  -4.900   0.3384   0.00867   0.00238  -0.2005  0.4653  0.0061  -2.1947   0.0000   0.0000   0.0000   0.8537
  -4.800   0.3503   0.00864   0.00235  -0.2007  0.4632  0.0061  -2.1366   0.0000   0.0000   0.0000   0.8333
  -4.700   0.3622   0.00862   0.00232  -0.2008  0.4595  0.0061  -2.0799   0.0000   0.0000   0.0000   0.8143
  -4.600   0.3741   0.00861   0.00229  -0.2010  0.4559  0.0061  -2.0244   0.0000   0.0000   0.0000   0.7966
  -4.500   0.3843   0.00872   0.00231  -0.2008  0.4335  0.0062  -1.9739   0.0000   0.0000   0.0000   0.7815
  -4.400   0.3959   0.00873   0.00228  -0.2009  0.4277  0.0062  -1.9217   0.0000   0.0000   0.0000   0.7659
  -4.300   0.4075   0.00874   0.00226  -0.2010  0.4224  0.0062  -1.8694   0.0000   0.0000   0.0000   0.7513
  -4.200   0.4190   0.00876   0.00225  -0.2011  0.4172  0.0063  -1.8179   0.0000   0.0000   0.0000   0.7375
  -4.100   0.4305   0.00877   0.00223  -0.2012  0.4118  0.0064  -1.7667   0.0000   0.0000   0.0000   0.7244
  -4.000   0.4420   0.00879   0.00223  -0.2012  0.4057  0.0065  -1.7139   0.0000   0.0000   0.0000   0.7120
  -3.900   0.4530   0.00884   0.00229  -0.2012  0.4021  0.0070  -1.6432   0.0000   0.0000   0.0000   0.7005
  -3.800   0.4686   0.00856   0.00197  -0.2021  0.4008  0.0150  -1.7783   0.0000   0.0000   0.0000   0.6872
  -3.700   0.4799   0.00859   0.00201  -0.2022  0.3993  0.0155  -1.6876   0.0000   0.0000   0.0000   0.6768
  -3.600   0.4911   0.00862   0.00207  -0.2022  0.3973  0.0159  -1.5982   0.0000   0.0000   0.0000   0.6669
  -3.500   0.5024   0.00865   0.00212  -0.2022  0.3947  0.0163  -1.5132   0.0000   0.0000   0.0000   0.6574
  -3.400   0.5130   0.00873   0.00220  -0.2021  0.3843  0.0165  -1.4349   0.0000   0.0000   0.0000   0.6487
  -3.300   0.5230   0.00887   0.00231  -0.2019  0.3687  0.0168  -1.3608   0.0000   0.0000   0.0000   0.6405
  -2.500   0.6162   0.00892   0.00222  -0.2029  0.3379  0.0208  -0.9585   0.0000   0.0000   0.0000   0.5816
  -2.400   0.6282   0.00891   0.00219  -0.2030  0.3368  0.0203  -0.9148   0.0000   0.0000   0.0000   0.5754
  -2.300   0.6401   0.00890   0.00216  -0.2031  0.3355  0.0195  -0.9035   0.0000   0.0000   0.0000   0.5694
  -2.200   0.6518   0.00890   0.00214  -0.2033  0.3322  0.0194  -0.9131   0.0000   0.0000   0.0000   0.5636
  -2.100   0.6615   0.00908   0.00220  -0.2030  0.3078  0.0193  -0.9256   0.0000   0.0000   0.0000   0.5585
  -2.000   0.6724   0.00916   0.00222  -0.2030  0.2978  0.0193  -0.9296   0.0000   0.0000   0.0000   0.5533
  -1.900   0.6831   0.00925   0.00223  -0.2029  0.2872  0.0192  -0.9315   0.0000   0.0000   0.0000   0.5483
  -1.800   0.6944   0.00929   0.00223  -0.2029  0.2783  0.0191  -0.9416   0.0000   0.0000   0.0000   0.5433
  -1.700   0.7061   0.00930   0.00223  -0.2030  0.2758  0.0191  -0.9524   0.0000   0.0000   0.0000   0.5384
  -1.600   0.7177   0.00931   0.00222  -0.2031  0.2728  0.0190  -0.9633   0.0000   0.0000   0.0000   0.5337
  -1.500   0.7271   0.00951   0.00231  -0.2028  0.2477  0.0189  -0.9767   0.0000   0.0000   0.0000   0.5295
  -1.400   0.7382   0.00957   0.00232  -0.2028  0.2418  0.0188  -0.9843   0.0000   0.0000   0.0000   0.5251
  -1.300   0.7493   0.00962   0.00234  -0.2028  0.2372  0.0189  -0.9904   0.0000   0.0000   0.0000   0.5209
  -1.200   0.7606   0.00966   0.00234  -0.2029  0.2334  0.0191  -0.9974   0.0000   0.0000   0.0000   0.5167
  -1.100   0.7720   0.00970   0.00235  -0.2029  0.2292  0.0194  -1.0052   0.0000   0.0000   0.0000   0.5127
  -1.000   0.7835   0.00972   0.00236  -0.2030  0.2251  0.0196  -1.0140   0.0000   0.0000   0.0000   0.5087
  -0.900   0.7951   0.00973   0.00236  -0.2031  0.2221  0.0199  -1.0236   0.0000   0.0000   0.0000   0.5049
  -0.800   0.8067   0.00974   0.00236  -0.2031  0.2215  0.0200  -1.0340   0.0000   0.0000   0.0000   0.5012
  -0.700   0.8183   0.00975   0.00237  -0.2032  0.2207  0.0201  -1.0443   0.0000   0.0000   0.0000   0.4975
  -0.600   0.8299   0.00977   0.00238  -0.2033  0.2198  0.0200  -1.0548   0.0000   0.0000   0.0000   0.4940
  -0.500   0.8414   0.00979   0.00239  -0.2034  0.2186  0.0199  -1.0653   0.0000   0.0000   0.0000   0.4906
  -0.400   0.8528   0.00981   0.00241  -0.2034  0.2166  0.0198  -1.0760   0.0000   0.0000   0.0000   0.4873
  -0.300   0.8629   0.00995   0.00249  -0.2032  0.2020  0.0197  -1.0891   0.0000   0.0000   0.0000   0.4841
  -0.200   0.8731   0.01008   0.00256  -0.2031  0.1911  0.0196  -1.1008   0.0000   0.0000   0.0000   0.4810
  -0.100   0.8837   0.01016   0.00261  -0.2030  0.1854  0.0195  -1.1122   0.0000   0.0000   0.0000   0.4780
   0.000   0.8946   0.01023   0.00265  -0.2029  0.1806  0.0194  -1.1233   0.0000   0.0000   0.0000   0.4750


