xflr5 v6.59

 Calculated polar for: WORTMANN FX 63-137 AIRFOIL

 1 1 Reynolds number fixed          Mach number fixed         

 xtrf =   1.000 (top)        1.000 (bottom)
 Mach =   0.000     Re =     3.800 e 6     Ncrit =   9.000

  alpha     CL        CD       CDp       Cm    Top Xtr Bot Xtr   Cpmin    Chinge    XCp    
 ------- -------- --------- --------- -------- ------- ------- -------- --------- ---------
  -8.500  -0.0817   0.00910   0.00337  -0.1974  0.4671  0.0095  -5.1401   0.0000   0.0000   0.0000  -2.2529
  -8.300  -0.0578   0.00902   0.00328  -0.1978  0.4639  0.0064  -4.9212   0.0000   0.0000   0.0000  -3.2913
  -8.200  -0.0457   0.00895   0.00320  -0.1980  0.4622  0.0063  -4.8134   0.0000   0.0000   0.0000  -4.2343
  -8.100  -0.0336   0.00890   0.00313  -0.1982  0.4599  0.0063  -4.7066   0.0000   0.0000   0.0000  -5.8504
  -8.000  -0.0231   0.00896   0.00310  -0.1981  0.4347  0.0063  -4.6083   0.0000   0.0000   0.0000  -8.6062
  -7.900  -0.0113   0.00893   0.00303  -0.1983  0.4290  0.0062  -4.5044   0.0000   0.0000   0.0000  -17.8545
  -7.800   0.0004   0.00890   0.00297  -0.1984  0.4237  0.0062  -4.4017   0.0000   0.0000   0.0000  468.0439
  -7.700   0.0121   0.00889   0.00292  -0.1985  0.4183  0.0062  -4.3045   0.0000   0.0000   0.0000  17.1369
  -7.600   0.0239   0.00886   0.00286  -0.1987  0.4126  0.0061  -4.2286   0.0000   0.0000   0.0000   8.8285
  -7.500   0.0358   0.00883   0.00281  -0.1988  0.4065  0.0061  -4.1527   0.0000   0.0000   0.0000   5.9801
  -7.400   0.0478   0.00879   0.00276  -0.1990  0.4023  0.0061  -4.0768   0.0000   0.0000   0.0000   4.5406
  -7.300   0.0599   0.00875   0.00271  -0.1992  0.4012  0.0060  -4.0011   0.0000   0.0000   0.0000   3.6765
  -7.200   0.0719   0.00871   0.00266  -0.1994  0.3999  0.0060  -3.9258   0.0000   0.0000   0.0000   3.1034
  -7.100   0.0839   0.00867   0.00261  -0.1995  0.3982  0.0060  -3.8511   0.0000   0.0000   0.0000   2.6959
  -7.000   0.0960   0.00863   0.00256  -0.1997  0.3973  0.0059  -3.7766   0.0000   0.0000   0.0000   2.3894
  -6.900   0.1081   0.00859   0.00251  -0.1999  0.3972  0.0059  -3.7022   0.0000   0.0000   0.0000   2.1508
  -6.800   0.1191   0.00864   0.00250  -0.1999  0.3824  0.0059  -3.6320   0.0000   0.0000   0.0000   1.9735
  -6.700   0.1304   0.00867   0.00248  -0.1999  0.3690  0.0059  -3.5616   0.0000   0.0000   0.0000   1.8247
  -6.600   0.1421   0.00866   0.00245  -0.2001  0.3648  0.0058  -3.4895   0.0000   0.0000   0.0000   1.6946
  -6.500   0.1538   0.00865   0.00242  -0.2002  0.3606  0.0058  -3.4178   0.0000   0.0000   0.0000   1.5849
  -6.400   0.1655   0.00865   0.00240  -0.2003  0.3564  0.0058  -3.3464   0.0000   0.0000   0.0000   1.4909
  -6.300   0.1771   0.00865   0.00238  -0.2004  0.3520  0.0058  -3.2751   0.0000   0.0000   0.0000   1.4093
  -6.200   0.1889   0.00864   0.00235  -0.2005  0.3474  0.0058  -3.2037   0.0000   0.0000   0.0000   1.3373
  -6.100   0.2007   0.00863   0.00233  -0.2006  0.3423  0.0058  -3.1322   0.0000   0.0000   0.0000   1.2735
  -6.000   0.2126   0.00862   0.00231  -0.2007  0.3391  0.0058  -3.0607   0.0000   0.0000   0.0000   1.2164
  -5.900   0.2246   0.00859   0.00228  -0.2009  0.3384  0.0058  -2.9890   0.0000   0.0000   0.0000   1.1653
  -5.800   0.2365   0.00857   0.00226  -0.2010  0.3375  0.0057  -2.9174   0.0000   0.0000   0.0000   1.1194
  -5.700   0.2484   0.00856   0.00225  -0.2012  0.3365  0.0057  -2.8451   0.0000   0.0000   0.0000   1.0780
  -5.600   0.2602   0.00855   0.00223  -0.2013  0.3351  0.0057  -2.7715   0.0000   0.0000   0.0000   1.0404
  -5.500   0.2720   0.00854   0.00223  -0.2014  0.3343  0.0056  -2.6928   0.0000   0.0000   0.0000   1.0063
  -5.300   0.2928   0.00875   0.00242  -0.2011  0.3081  0.0056  -2.4769   0.0000   0.0000   0.0000   0.9510
  -5.200   0.3045   0.00875   0.00241  -0.2012  0.3040  0.0056  -2.4135   0.0000   0.0000   0.0000   0.9242
  -5.100   0.3161   0.00876   0.00240  -0.2013  0.3000  0.0055  -2.3523   0.0000   0.0000   0.0000   0.8994
  -5.000   0.3277   0.00877   0.00238  -0.2014  0.2960  0.0055  -2.2929   0.0000   0.0000   0.0000   0.8764
  -4.900   0.3394   0.00877   0.00236  -0.2015  0.2918  0.0055  -2.2350   0.0000   0.0000   0.0000   0.8549
  -4.800   0.3512   0.00877   0.00234  -0.2016  0.2875  0.0054  -2.1783   0.0000   0.0000   0.0000   0.8348
  -4.700   0.3630   0.00876   0.00232  -0.2018  0.2828  0.0054  -2.1229   0.0000   0.0000   0.0000   0.8158
  -4.600   0.3750   0.00874   0.00229  -0.2019  0.2792  0.0054  -2.0687   0.0000   0.0000   0.0000   0.7979
  -4.500   0.3870   0.00872   0.00226  -0.2021  0.2782  0.0054  -2.0158   0.0000   0.0000   0.0000   0.7811
  -4.400   0.3990   0.00870   0.00222  -0.2023  0.2774  0.0053  -1.9654   0.0000   0.0000   0.0000   0.7653
  -4.300   0.4110   0.00868   0.00220  -0.2024  0.2765  0.0053  -1.9153   0.0000   0.0000   0.0000   0.7504
  -4.200   0.4230   0.00866   0.00217  -0.2026  0.2754  0.0053  -1.8671   0.0000   0.0000   0.0000   0.7364
  -4.100   0.4350   0.00864   0.00214  -0.2027  0.2745  0.0053  -1.8210   0.0000   0.0000   0.0000   0.7231
  -4.000   0.4474   0.00859   0.00207  -0.2030  0.2741  0.0053  -1.7995   0.0000   0.0000   0.0000   0.7103
  -3.900   0.4580   0.00870   0.00209  -0.2029  0.2514  0.0053  -1.7825   0.0000   0.0000   0.0000   0.6993
  -3.800   0.4698   0.00870   0.00207  -0.2030  0.2473  0.0053  -1.7457   0.0000   0.0000   0.0000   0.6881
  -3.700   0.4815   0.00871   0.00206  -0.2031  0.2443  0.0054  -1.7083   0.0000   0.0000   0.0000   0.6774
  -3.600   0.4942   0.00865   0.00203  -0.2034  0.2413  0.0136  -1.7388   0.0000   0.0000   0.0000   0.6670
  -3.500   0.5057   0.00867   0.00204  -0.2035  0.2383  0.0142  -1.6748   0.0000   0.0000   0.0000   0.6574
  -3.400   0.5172   0.00869   0.00205  -0.2036  0.2353  0.0146  -1.6103   0.0000   0.0000   0.0000   0.6483
  -3.300   0.5287   0.00871   0.00205  -0.2036  0.2322  0.0149  -1.5445   0.0000   0.0000   0.0000   0.6396
  -3.200   0.5403   0.00873   0.00206  -0.2037  0.2291  0.0152  -1.4771   0.0000   0.0000   0.0000   0.6312
  -3.100   0.5518   0.00874   0.00208  -0.2038  0.2255  0.0155  -1.4079   0.0000   0.0000   0.0000   0.6232
  -3.000   0.5633   0.00876   0.00209  -0.2039  0.2228  0.0157  -1.3378   0.0000   0.0000   0.0000   0.6155
  -2.900   0.5749   0.00877   0.00211  -0.2039  0.2219  0.0159  -1.2687   0.0000   0.0000   0.0000   0.6081
  -2.800   0.5865   0.00878   0.00212  -0.2040  0.2214  0.0161  -1.2027   0.0000   0.0000   0.0000   0.6010
  -2.700   0.5981   0.00879   0.00213  -0.2041  0.2209  0.0163  -1.1411   0.0000   0.0000   0.0000   0.5942
  -2.600   0.6099   0.00879   0.00213  -0.2042  0.2203  0.0164  -1.0848   0.0000   0.0000   0.0000   0.5876
  -2.500   0.6217   0.00879   0.00212  -0.2044  0.2197  0.0164  -1.0357   0.0000   0.0000   0.0000   0.5812
  -2.400   0.6337   0.00877   0.00210  -0.2045  0.2188  0.0163  -1.0033   0.0000   0.0000   0.0000   0.5750
  -2.300   0.6426   0.00904   0.00217  -0.2041  0.1794  0.0158  -1.0018   0.0000   0.0000   0.0000   0.5697
  -2.200   0.6540   0.00907   0.00218  -0.2042  0.1740  0.0159  -0.9451   0.0000   0.0000   0.0000   0.5640
  -2.100   0.6656   0.00908   0.00219  -0.2042  0.1715  0.0161  -0.9250   0.0000   0.0000   0.0000   0.5585
  -2.000   0.6772   0.00909   0.00220  -0.2043  0.1702  0.0162  -0.9338   0.0000   0.0000   0.0000   0.5532
  -1.900   0.6888   0.00910   0.00221  -0.2044  0.1699  0.0163  -0.9425   0.0000   0.0000   0.0000   0.5480
  -1.800   0.7004   0.00911   0.00222  -0.2045  0.1695  0.0164  -0.9513   0.0000   0.0000   0.0000   0.5431
  -1.700   0.7121   0.00912   0.00223  -0.2046  0.1691  0.0165  -0.9601   0.0000   0.0000   0.0000   0.5382
  -1.600   0.7237   0.00913   0.00223  -0.2047  0.1687  0.0166  -0.9700   0.0000   0.0000   0.0000   0.5336
  -1.500   0.7353   0.00914   0.00224  -0.2048  0.1683  0.0167  -0.9803   0.0000   0.0000   0.0000   0.5290
  -1.400   0.7469   0.00916   0.00225  -0.2049  0.1677  0.0167  -0.9907   0.0000   0.0000   0.0000   0.5247
  -1.300   0.7585   0.00917   0.00226  -0.2050  0.1670  0.0168  -1.0011   0.0000   0.0000   0.0000   0.5204
  -1.200   0.7700   0.00919   0.00227  -0.2050  0.1660  0.0168  -1.0114   0.0000   0.0000   0.0000   0.5163
  -1.100   0.7817   0.00920   0.00228  -0.2051  0.1657  0.0169  -1.0218   0.0000   0.0000   0.0000   0.5123
  -1.000   0.7920   0.00932   0.00235  -0.2050  0.1507  0.0169  -1.0320   0.0000   0.0000   0.0000   0.5085
  -0.900   0.8031   0.00938   0.00238  -0.2050  0.1454  0.0169  -1.0423   0.0000   0.0000   0.0000   0.5048
  -0.800   0.8145   0.00941   0.00240  -0.2050  0.1438  0.0169  -1.0527   0.0000   0.0000   0.0000   0.5011
  -0.700   0.8258   0.00944   0.00242  -0.2050  0.1421  0.0170  -1.0630   0.0000   0.0000   0.0000   0.4975
  -0.600   0.8370   0.00949   0.00245  -0.2051  0.1392  0.0171  -1.0732   0.0000   0.0000   0.0000   0.4941
  -0.300   0.8708   0.00961   0.00250  -0.2051  0.1291  0.0187  -1.1041   0.0000   0.0000   0.0000   0.4842
  -0.200   0.8822   0.00963   0.00252  -0.2052  0.1271  0.0188  -1.1144   0.0000   0.0000   0.0000   0.4810
  -0.100   0.8936   0.00966   0.00254  -0.2052  0.1253  0.0188  -1.1248   0.0000   0.0000   0.0000   0.4780
   0.000   0.9050   0.00968   0.00257  -0.2053  0.1241  0.0188  -1.1352   0.0000   0.0000   0.0000   0.4750


