xflr5 v6.59

 Calculated polar for: WORTMANN FX 63-137 AIRFOIL

 1 1 Reynolds number fixed          Mach number fixed         

 xtrf =   1.000 (top)        1.000 (bottom)
 Mach =   0.000     Re =     1.800 e 6     Ncrit =   9.000

  alpha     CL        CD       CDp       Cm    Top Xtr Bot Xtr   Cpmin    Chinge    XCp    
 ------- -------- --------- --------- -------- ------- ------- -------- --------- ---------
 -13.700  -0.5865   0.06326   0.06149  -0.0989  0.9937  0.0068  -10.0129   0.0000   0.0000   0.0000   0.0561
 -13.600  -0.6165   0.05455   0.05265  -0.1069  0.9921  0.0068  -10.5583   0.0000   0.0000   0.0000   0.0522
 -13.500  -0.6310   0.04855   0.04655  -0.1137  0.9909  0.0068  -10.8412   0.0000   0.0000   0.0000   0.0461
 -13.400  -0.6405   0.04450   0.04242  -0.1180  0.9882  0.0068  -10.9968   0.0000   0.0000   0.0000   0.0425
 -13.300  -0.6459   0.04089   0.03873  -0.1226  0.9853  0.0068  -11.0989   0.0000   0.0000   0.0000   0.0374
 -13.100  -0.6534   0.03530   0.03299  -0.1295  0.9762  0.0068  -11.2069   0.0000   0.0000   0.0000   0.0298
 -13.000  -0.6570   0.03311   0.03075  -0.1319  0.9690  0.0068  -11.2341   0.0000   0.0000   0.0000   0.0277
 -12.800  -0.6422   0.02812   0.02555  -0.1419  0.9565  0.0068  -11.1361   0.0000   0.0000   0.0000   0.0077
 -12.700  -0.6237   0.02565   0.02296  -0.1491  0.9518  0.0068  -11.0008   0.0000   0.0000   0.0000  -0.0107
 -12.600  -0.5990   0.02338   0.02055  -0.1571  0.9481  0.0068  -10.8139   0.0000   0.0000   0.0000  -0.0343
 -12.500  -0.5712   0.02142   0.01845  -0.1650  0.9427  0.0068  -10.5952   0.0000   0.0000   0.0000  -0.0616
 -12.400  -0.5419   0.01974   0.01662  -0.1726  0.9350  0.0068  -10.3571   0.0000   0.0000   0.0000  -0.0920
 -12.300  -0.5168   0.01847   0.01519  -0.1785  0.9229  0.0068  -10.1384   0.0000   0.0000   0.0000  -0.1196
 -12.200  -0.4989   0.01760   0.01417  -0.1820  0.9078  0.0068  -9.9610   0.0000   0.0000   0.0000  -0.1395
 -12.100  -0.4869   0.01704   0.01347  -0.1835  0.8929  0.0068  -9.8166   0.0000   0.0000   0.0000  -0.1519
 -12.000  -0.4768   0.01657   0.01289  -0.1844  0.8806  0.0068  -9.6831   0.0000   0.0000   0.0000  -0.1619
 -11.900  -0.4670   0.01614   0.01237  -0.1851  0.8706  0.0068  -9.5511   0.0000   0.0000   0.0000  -0.1715
 -11.800  -0.4574   0.01576   0.01189  -0.1856  0.8591  0.0068  -9.4191   0.0000   0.0000   0.0000  -0.1811
 -11.700  -0.4477   0.01541   0.01144  -0.1860  0.8501  0.0068  -9.2877   0.0000   0.0000   0.0000  -0.1910
 -11.600  -0.4375   0.01506   0.01101  -0.1865  0.8421  0.0068  -9.1510   0.0000   0.0000   0.0000  -0.2020
 -11.500  -0.4278   0.01476   0.01062  -0.1868  0.8335  0.0068  -9.0176   0.0000   0.0000   0.0000  -0.2126
 -11.400  -0.4174   0.01445   0.01024  -0.1872  0.8268  0.0068  -8.8796   0.0000   0.0000   0.0000  -0.2246
 -11.300  -0.4065   0.01416   0.00988  -0.1876  0.8203  0.0068  -8.7385   0.0000   0.0000   0.0000  -0.2381
 -11.200  -0.3960   0.01390   0.00954  -0.1879  0.8122  0.0068  -8.6004   0.0000   0.0000   0.0000  -0.2513
 -11.100  -0.3860   0.01366   0.00923  -0.1881  0.8040  0.0068  -8.4650   0.0000   0.0000   0.0000  -0.2645
 -11.000  -0.3747   0.01341   0.00892  -0.1885  0.7995  0.0067  -8.3221   0.0000   0.0000   0.0000  -0.2807
 -10.900  -0.3634   0.01317   0.00862  -0.1889  0.7948  0.0067  -8.1800   0.0000   0.0000   0.0000  -0.2977
 -10.800  -0.3524   0.01296   0.00834  -0.1892  0.7897  0.0067  -8.0393   0.0000   0.0000   0.0000  -0.3153
 -10.700  -0.3415   0.01276   0.00808  -0.1895  0.7842  0.0067  -7.9003   0.0000   0.0000   0.0000  -0.3336
 -10.600  -0.3305   0.01257   0.00783  -0.1897  0.7784  0.0067  -7.7614   0.0000   0.0000   0.0000  -0.3533
 -10.500  -0.3187   0.01236   0.00758  -0.1901  0.7758  0.0067  -7.6179   0.0000   0.0000   0.0000  -0.3764
 -10.400  -0.3068   0.01217   0.00734  -0.1905  0.7730  0.0067  -7.4749   0.0000   0.0000   0.0000  -0.4014
 -10.300  -0.2951   0.01198   0.00712  -0.1908  0.7692  0.0067  -7.3333   0.0000   0.0000   0.0000  -0.4280
 -10.200  -0.2835   0.01182   0.00690  -0.1911  0.7645  0.0066  -7.1934   0.0000   0.0000   0.0000  -0.4563
 -10.100  -0.2721   0.01166   0.00670  -0.1913  0.7590  0.0066  -7.0558   0.0000   0.0000   0.0000  -0.4861
 -10.000  -0.2610   0.01153   0.00650  -0.1915  0.7528  0.0066  -6.9204   0.0000   0.0000   0.0000  -0.5176
  -9.900  -0.2495   0.01138   0.00632  -0.1917  0.7485  0.0066  -6.7831   0.0000   0.0000   0.0000  -0.5536
  -9.800  -0.2376   0.01123   0.00613  -0.1921  0.7454  0.0066  -6.6448   0.0000   0.0000   0.0000  -0.5945
  -9.700  -0.2257   0.01109   0.00595  -0.1923  0.7422  0.0066  -6.5163   0.0000   0.0000   0.0000  -0.6396
  -9.600  -0.2139   0.01095   0.00578  -0.1926  0.7389  0.0066  -6.3997   0.0000   0.0000   0.0000  -0.6894
  -9.500  -0.2021   0.01082   0.00562  -0.1929  0.7357  0.0065  -6.2838   0.0000   0.0000   0.0000  -0.7450
  -9.400  -0.1903   0.01069   0.00545  -0.1932  0.7327  0.0065  -6.1687   0.0000   0.0000   0.0000  -0.8073
  -9.300  -0.1786   0.01055   0.00528  -0.1934  0.7294  0.0065  -6.0553   0.0000   0.0000   0.0000  -0.8778
  -9.200  -0.1667   0.01042   0.00512  -0.1937  0.7265  0.0065  -5.9404   0.0000   0.0000   0.0000  -0.9592
  -9.100  -0.1548   0.01029   0.00498  -0.1940  0.7237  0.0065  -5.8259   0.0000   0.0000   0.0000  -1.0535
  -9.000  -0.1428   0.01017   0.00484  -0.1943  0.7211  0.0065  -5.7119   0.0000   0.0000   0.0000  -1.1641
  -8.900  -0.1305   0.01005   0.00470  -0.1946  0.7203  0.0065  -5.5974   0.0000   0.0000   0.0000  -1.2983
  -8.800  -0.1183   0.00993   0.00457  -0.1949  0.7193  0.0065  -5.4840   0.0000   0.0000   0.0000  -1.4601
  -8.700  -0.1061   0.00982   0.00445  -0.1952  0.7177  0.0064  -5.3716   0.0000   0.0000   0.0000  -1.6582
  -8.600  -0.0940   0.00972   0.00433  -0.1954  0.7151  0.0064  -5.2605   0.0000   0.0000   0.0000  -1.9059
  -8.500  -0.0820   0.00964   0.00421  -0.1956  0.7106  0.0064  -5.1511   0.0000   0.0000   0.0000  -2.2213
  -8.400  -0.0705   0.00957   0.00410  -0.1958  0.7031  0.0064  -5.0443   0.0000   0.0000   0.0000  -2.6265
  -8.300  -0.0595   0.00954   0.00401  -0.1958  0.6931  0.0064  -4.9410   0.0000   0.0000   0.0000  -3.1557
  -8.200  -0.0478   0.00947   0.00390  -0.1959  0.6870  0.0064  -4.8353   0.0000   0.0000   0.0000  -3.9865
  -8.100  -0.0361   0.00941   0.00381  -0.1961  0.6814  0.0064  -4.7303   0.0000   0.0000   0.0000  -5.3599
  -8.000  -0.0246   0.00936   0.00371  -0.1962  0.6755  0.0064  -4.6267   0.0000   0.0000   0.0000  -8.0062
  -7.900  -0.0131   0.00932   0.00362  -0.1963  0.6694  0.0064  -4.5244   0.0000   0.0000   0.0000  -15.2558
  -7.800  -0.0015   0.00927   0.00354  -0.1965  0.6632  0.0064  -4.4223   0.0000   0.0000   0.0000  -138.0949
  -7.700   0.0105   0.00920   0.00345  -0.1967  0.6600  0.0064  -4.3194   0.0000   0.0000   0.0000  19.5283
  -7.600   0.0227   0.00913   0.00337  -0.1969  0.6587  0.0065  -4.2166   0.0000   0.0000   0.0000   9.1967
  -7.500   0.0349   0.00907   0.00329  -0.1971  0.6573  0.0065  -4.1147   0.0000   0.0000   0.0000   6.0802
  -7.400   0.0470   0.00900   0.00321  -0.1974  0.6555  0.0065  -4.0226   0.0000   0.0000   0.0000   4.5779
  -7.300   0.0591   0.00894   0.00313  -0.1976  0.6530  0.0065  -3.9468   0.0000   0.0000   0.0000   3.6947
  -7.200   0.0710   0.00889   0.00306  -0.1978  0.6495  0.0065  -3.8716   0.0000   0.0000   0.0000   3.1150
  -7.100   0.0828   0.00885   0.00300  -0.1979  0.6437  0.0065  -3.7976   0.0000   0.0000   0.0000   2.7086
  -7.000   0.0943   0.00883   0.00294  -0.1980  0.6362  0.0065  -3.7249   0.0000   0.0000   0.0000   2.4099
  -6.900   0.1060   0.00880   0.00286  -0.1981  0.6313  0.0065  -3.6517   0.0000   0.0000   0.0000   2.1717
  -6.800   0.1178   0.00876   0.00280  -0.1983  0.6268  0.0065  -3.5785   0.0000   0.0000   0.0000   1.9794
  -6.700   0.1297   0.00872   0.00275  -0.1984  0.6230  0.0065  -3.5052   0.0000   0.0000   0.0000   1.8215
  -6.600   0.1415   0.00869   0.00269  -0.1986  0.6190  0.0065  -3.4321   0.0000   0.0000   0.0000   1.6905
  -6.500   0.1533   0.00866   0.00265  -0.1987  0.6149  0.0065  -3.3591   0.0000   0.0000   0.0000   1.5801
  -6.400   0.1650   0.00864   0.00260  -0.1989  0.6105  0.0065  -3.2861   0.0000   0.0000   0.0000   1.4861
  -6.300   0.1766   0.00862   0.00256  -0.1990  0.6058  0.0065  -3.2122   0.0000   0.0000   0.0000   1.4048
  -6.200   0.1882   0.00861   0.00253  -0.1991  0.6007  0.0065  -3.1342   0.0000   0.0000   0.0000   1.3334
  -6.100   0.2000   0.00859   0.00251  -0.1992  0.5971  0.0065  -3.0489   0.0000   0.0000   0.0000   1.2700
  -6.000   0.2115   0.00861   0.00255  -0.1992  0.5957  0.0065  -2.9413   0.0000   0.0000   0.0000   1.2145
  -5.900   0.2224   0.00867   0.00267  -0.1992  0.5939  0.0065  -2.8187   0.0000   0.0000   0.0000   1.1662
  -5.800   0.2340   0.00867   0.00269  -0.1993  0.5914  0.0065  -2.7338   0.0000   0.0000   0.0000   1.1209
  -5.700   0.2457   0.00866   0.00267  -0.1994  0.5872  0.0065  -2.6618   0.0000   0.0000   0.0000   1.0795
  -5.600   0.2571   0.00866   0.00266  -0.1994  0.5794  0.0065  -2.5932   0.0000   0.0000   0.0000   1.0425
  -5.500   0.2680   0.00871   0.00265  -0.1994  0.5670  0.0065  -2.5285   0.0000   0.0000   0.0000   1.0100
  -5.400   0.2795   0.00871   0.00262  -0.1995  0.5608  0.0065  -2.4635   0.0000   0.0000   0.0000   0.9786
  -5.300   0.2911   0.00870   0.00260  -0.1996  0.5557  0.0065  -2.3998   0.0000   0.0000   0.0000   0.9496
  -5.200   0.3028   0.00869   0.00257  -0.1997  0.5508  0.0065  -2.3377   0.0000   0.0000   0.0000   0.9228
  -5.100   0.3143   0.00870   0.00254  -0.1998  0.5453  0.0065  -2.2772   0.0000   0.0000   0.0000   0.8981
  -5.000   0.3258   0.00870   0.00252  -0.1999  0.5394  0.0065  -2.2178   0.0000   0.0000   0.0000   0.8752
  -4.900   0.3375   0.00869   0.00249  -0.2000  0.5335  0.0065  -2.1590   0.0000   0.0000   0.0000   0.8536
  -4.800   0.3495   0.00866   0.00245  -0.2002  0.5313  0.0065  -2.1005   0.0000   0.0000   0.0000   0.8332
  -4.700   0.3615   0.00863   0.00242  -0.2003  0.5293  0.0066  -2.0426   0.0000   0.0000   0.0000   0.8141
  -4.600   0.3734   0.00861   0.00239  -0.2005  0.5265  0.0066  -1.9855   0.0000   0.0000   0.0000   0.7963
  -4.500   0.3851   0.00860   0.00237  -0.2006  0.5213  0.0067  -1.9292   0.0000   0.0000   0.0000   0.7797
  -4.400   0.3962   0.00864   0.00235  -0.2006  0.5110  0.0067  -1.8744   0.0000   0.0000   0.0000   0.7647
  -4.300   0.4068   0.00872   0.00237  -0.2005  0.4975  0.0068  -1.8195   0.0000   0.0000   0.0000   0.7508
  -4.200   0.4180   0.00875   0.00238  -0.2005  0.4916  0.0070  -1.7596   0.0000   0.0000   0.0000   0.7371
  -4.000   0.4456   0.00844   0.00195  -0.2017  0.4795  0.0149  -1.8762   0.0000   0.0000   0.0000   0.7092
  -3.900   0.4562   0.00853   0.00202  -0.2016  0.4730  0.0155  -1.7785   0.0000   0.0000   0.0000   0.6981
  -3.800   0.4671   0.00858   0.00210  -0.2015  0.4674  0.0160  -1.6825   0.0000   0.0000   0.0000   0.6874
  -3.700   0.4782   0.00862   0.00218  -0.2015  0.4657  0.0164  -1.5914   0.0000   0.0000   0.0000   0.6770
  -3.600   0.4893   0.00866   0.00227  -0.2015  0.4638  0.0167  -1.5045   0.0000   0.0000   0.0000   0.6671
  -3.100   0.5455   0.00883   0.00233  -0.2018  0.4251  0.0206  -1.2206   0.0000   0.0000   0.0000   0.6237
  -3.000   0.5572   0.00883   0.00230  -0.2019  0.4201  0.0206  -1.1762   0.0000   0.0000   0.0000   0.6159
  -2.900   0.5688   0.00884   0.00227  -0.2020  0.4150  0.0206  -1.1321   0.0000   0.0000   0.0000   0.6085
  -2.800   0.5805   0.00886   0.00224  -0.2021  0.4091  0.0206  -1.0882   0.0000   0.0000   0.0000   0.6013
  -2.700   0.5923   0.00885   0.00220  -0.2023  0.4037  0.0205  -1.0441   0.0000   0.0000   0.0000   0.5944
  -2.600   0.6043   0.00884   0.00217  -0.2024  0.4016  0.0203  -0.9999   0.0000   0.0000   0.0000   0.5876
  -2.500   0.6163   0.00882   0.00214  -0.2026  0.4002  0.0201  -0.9559   0.0000   0.0000   0.0000   0.5811
  -2.400   0.6282   0.00880   0.00211  -0.2027  0.3984  0.0198  -0.9118   0.0000   0.0000   0.0000   0.5749
  -2.300   0.6401   0.00880   0.00208  -0.2029  0.3960  0.0192  -0.9008   0.0000   0.0000   0.0000   0.5689
  -2.200   0.6519   0.00880   0.00206  -0.2030  0.3930  0.0192  -0.9096   0.0000   0.0000   0.0000   0.5632
  -2.100   0.6623   0.00891   0.00209  -0.2029  0.3763  0.0191  -0.9178   0.0000   0.0000   0.0000   0.5579
  -2.000   0.6734   0.00897   0.00209  -0.2029  0.3670  0.0191  -0.9262   0.0000   0.0000   0.0000   0.5527
  -1.900   0.6847   0.00901   0.00209  -0.2029  0.3609  0.0191  -0.9350   0.0000   0.0000   0.0000   0.5476
  -1.800   0.6956   0.00908   0.00210  -0.2029  0.3534  0.0191  -0.9437   0.0000   0.0000   0.0000   0.5427
  -1.700   0.7066   0.00915   0.00211  -0.2029  0.3438  0.0190  -0.9523   0.0000   0.0000   0.0000   0.5379
  -1.600   0.7181   0.00917   0.00210  -0.2029  0.3382  0.0191  -0.9613   0.0000   0.0000   0.0000   0.5333
  -1.500   0.7297   0.00918   0.00209  -0.2030  0.3353  0.0194  -0.9708   0.0000   0.0000   0.0000   0.5287
  -1.400   0.7412   0.00920   0.00209  -0.2031  0.3308  0.0197  -0.9808   0.0000   0.0000   0.0000   0.5243
  -1.300   0.7503   0.00943   0.00218  -0.2027  0.3039  0.0200  -0.9930   0.0000   0.0000   0.0000   0.5204
  -1.200   0.7610   0.00952   0.00221  -0.2027  0.2948  0.0203  -0.9999   0.0000   0.0000   0.0000   0.5163
  -1.100   0.7717   0.00960   0.00223  -0.2026  0.2856  0.0205  -1.0099   0.0000   0.0000   0.0000   0.5124
  -1.000   0.7831   0.00964   0.00225  -0.2026  0.2787  0.0206  -1.0201   0.0000   0.0000   0.0000   0.5085
  -0.900   0.7947   0.00965   0.00225  -0.2027  0.2772  0.0206  -1.0308   0.0000   0.0000   0.0000   0.5046
  -0.800   0.8063   0.00966   0.00225  -0.2028  0.2756  0.0205  -1.0415   0.0000   0.0000   0.0000   0.5009
  -0.700   0.8178   0.00968   0.00226  -0.2029  0.2734  0.0204  -1.0523   0.0000   0.0000   0.0000   0.4973
  -0.600   0.8293   0.00970   0.00227  -0.2030  0.2720  0.0203  -1.0630   0.0000   0.0000   0.0000   0.4938
  -0.500   0.8388   0.00988   0.00237  -0.2027  0.2513  0.0202  -1.0775   0.0000   0.0000   0.0000   0.4905
  -0.400   0.8498   0.00994   0.00240  -0.2027  0.2463  0.0201  -1.0874   0.0000   0.0000   0.0000   0.4872
  -0.300   0.8609   0.01000   0.00243  -0.2026  0.2424  0.0200  -1.0957   0.0000   0.0000   0.0000   0.4840
  -0.200   0.8716   0.01008   0.00248  -0.2026  0.2370  0.0200  -1.1007   0.0000   0.0000   0.0000   0.4808
  -0.100   0.8822   0.01017   0.00253  -0.2025  0.2289  0.0199  -1.1040   0.0000   0.0000   0.0000   0.4778
   0.000   0.8932   0.01023   0.00256  -0.2025  0.2219  0.0198  -1.1116   0.0000   0.0000   0.0000   0.4748


