xflr5 v6.59

 Calculated polar for: WORTMANN FX 63-137 AIRFOIL

 1 1 Reynolds number fixed          Mach number fixed         

 xtrf =   1.000 (top)        1.000 (bottom)
 Mach =   0.000     Re =     0.500 e 6     Ncrit =   9.000

  alpha     CL        CD       CDp       Cm    Top Xtr Bot Xtr   Cpmin    Chinge    XCp    
 ------- -------- --------- --------- -------- ------- ------- -------- --------- ---------
 -19.200  -0.3975   0.22332   0.22056  -0.0243  1.0000  0.0099  -1.5514   0.0000   0.0000   0.0000   0.1581
 -19.100  -0.3948   0.22213   0.21937  -0.0248  1.0000  0.0099  -1.5551   0.0000   0.0000   0.0000   0.1563
 -19.000  -0.3921   0.22091   0.21815  -0.0253  1.0000  0.0099  -1.5590   0.0000   0.0000   0.0000   0.1545
 -18.900  -0.3895   0.21968   0.21692  -0.0259  1.0000  0.0099  -1.5630   0.0000   0.0000   0.0000   0.1528
 -18.800  -0.3868   0.21844   0.21570  -0.0264  1.0000  0.0100  -1.5672   0.0000   0.0000   0.0000   0.1510
 -18.600  -0.3828   0.21259   0.20987  -0.0260  1.0000  0.0105  -1.5722   0.0000   0.0000   0.0000   0.1510
 -18.500  -0.3797   0.21149   0.20876  -0.0263  1.0000  0.0106  -1.5507   0.0000   0.0000   0.0000   0.1496
 -18.400  -0.3767   0.21040   0.20768  -0.0267  1.0000  0.0106  -1.5303   0.0000   0.0000   0.0000   0.1481
 -18.300  -0.3737   0.20933   0.20662  -0.0270  1.0000  0.0107  -1.5111   0.0000   0.0000   0.0000   0.1466
 -18.200  -0.3707   0.20827   0.20556  -0.0274  1.0000  0.0108  -1.4929   0.0000   0.0000   0.0000   0.1451
 -18.100  -0.3678   0.20721   0.20450  -0.0278  1.0000  0.0109  -1.4758   0.0000   0.0000   0.0000   0.1435
 -18.000  -0.3648   0.20616   0.20345  -0.0281  1.0000  0.0109  -1.4596   0.0000   0.0000   0.0000   0.1419
 -17.900  -0.3619   0.20510   0.20239  -0.0285  1.0000  0.0110  -1.4445   0.0000   0.0000   0.0000   0.1402
 -17.800  -0.3591   0.20404   0.20134  -0.0289  1.0000  0.0111  -1.4303   0.0000   0.0000   0.0000   0.1385
 -17.700  -0.3562   0.20297   0.20028  -0.0293  1.0000  0.0112  -1.4170   0.0000   0.0000   0.0000   0.1368
 -17.600  -0.3534   0.20190   0.19921  -0.0297  1.0000  0.0113  -1.4047   0.0000   0.0000   0.0000   0.1351
 -17.500  -0.3505   0.20082   0.19814  -0.0300  1.0000  0.0115  -1.3932   0.0000   0.0000   0.0000   0.1333
 -17.400  -0.3478   0.19974   0.19706  -0.0304  1.0000  0.0116  -1.3825   0.0000   0.0000   0.0000   0.1315
 -17.300  -0.3450   0.19865   0.19598  -0.0308  1.0000  0.0117  -1.3728   0.0000   0.0000   0.0000   0.1297
 -17.200  -0.3422   0.19756   0.19489  -0.0312  1.0000  0.0118  -1.3638   0.0000   0.0000   0.0000   0.1279
 -17.100  -0.3395   0.19646   0.19379  -0.0316  1.0000  0.0120  -1.3556   0.0000   0.0000   0.0000   0.1260
 -17.000  -0.3368   0.19535   0.19269  -0.0319  1.0000  0.0121  -1.3482   0.0000   0.0000   0.0000   0.1242
 -16.900  -0.3342   0.19424   0.19158  -0.0323  1.0000  0.0123  -1.3415   0.0000   0.0000   0.0000   0.1223
 -16.800  -0.3315   0.19312   0.19047  -0.0327  1.0000  0.0125  -1.3355   0.0000   0.0000   0.0000   0.1204
 -16.700  -0.3289   0.19200   0.18935  -0.0330  1.0000  0.0127  -1.3302   0.0000   0.0000   0.0000   0.1185
 -16.600  -0.3263   0.19087   0.18823  -0.0334  1.0000  0.0129  -1.3257   0.0000   0.0000   0.0000   0.1166
 -16.500  -0.3237   0.18973   0.18709  -0.0337  1.0000  0.0131  -1.3218   0.0000   0.0000   0.0000   0.1147
 -16.400  -0.3212   0.18859   0.18596  -0.0341  1.0000  0.0133  -1.3186   0.0000   0.0000   0.0000   0.1128
 -16.300  -0.3187   0.18744   0.18482  -0.0344  1.0000  0.0136  -1.3161   0.0000   0.0000   0.0000   0.1108
 -16.200  -0.3162   0.18629   0.18367  -0.0348  1.0000  0.0138  -1.3144   0.0000   0.0000   0.0000   0.1089
 -16.100  -0.3137   0.18513   0.18251  -0.0351  1.0000  0.0141  -1.3135   0.0000   0.0000   0.0000   0.1069
 -16.000  -0.3113   0.18396   0.18135  -0.0355  1.0000  0.0144  -1.3136   0.0000   0.0000   0.0000   0.1049
 -15.900  -0.3088   0.18279   0.18016  -0.0358  1.0000  0.0147  -1.3147   0.0000   0.0000   0.0000   0.1029
 -15.800  -0.3064   0.18162   0.17900  -0.0361  1.0000  0.0151  -1.3178   0.0000   0.0000   0.0000   0.1008
 -15.700  -0.3039   0.18045   0.17784  -0.0365  1.0000  0.0155  -1.3238   0.0000   0.0000   0.0000   0.0986
 -15.600  -0.3013   0.17931   0.17670  -0.0369  1.0000  0.0159  -1.3336   0.0000   0.0000   0.0000   0.0962
 -15.500  -0.2988   0.17820   0.17560  -0.0373  1.0000  0.0162  -1.3459   0.0000   0.0000   0.0000   0.0937
 -15.400  -0.2965   0.17711   0.17451  -0.0377  1.0000  0.0164  -1.3579   0.0000   0.0000   0.0000   0.0913
 -15.300  -0.2944   0.17600   0.17341  -0.0381  1.0000  0.0165  -1.3690   0.0000   0.0000   0.0000   0.0890
 -15.200  -0.2923   0.17489   0.17231  -0.0385  1.0000  0.0166  -1.3794   0.0000   0.0000   0.0000   0.0868
 -15.100  -0.2903   0.17376   0.17119  -0.0389  1.0000  0.0167  -1.3894   0.0000   0.0000   0.0000   0.0847
 -15.000  -0.2885   0.17263   0.17006  -0.0392  1.0000  0.0168  -1.3993   0.0000   0.0000   0.0000   0.0827
 -14.900  -0.2866   0.17149   0.16893  -0.0395  1.0000  0.0168  -1.4091   0.0000   0.0000   0.0000   0.0807
 -14.800  -0.2849   0.17034   0.16778  -0.0398  1.0000  0.0168  -1.4189   0.0000   0.0000   0.0000   0.0789
 -14.700  -0.2832   0.16918   0.16664  -0.0401  1.0000  0.0169  -1.4288   0.0000   0.0000   0.0000   0.0770
 -14.600  -0.2815   0.16802   0.16548  -0.0404  1.0000  0.0169  -1.4388   0.0000   0.0000   0.0000   0.0753
 -14.500  -0.2800   0.16685   0.16432  -0.0406  1.0000  0.0169  -1.4490   0.0000   0.0000   0.0000   0.0735
 -14.400  -0.2784   0.16568   0.16316  -0.0409  1.0000  0.0170  -1.4593   0.0000   0.0000   0.0000   0.0719
 -14.300  -0.2770   0.16451   0.16199  -0.0411  1.0000  0.0170  -1.4699   0.0000   0.0000   0.0000   0.0703
 -14.200  -0.2756   0.16333   0.16083  -0.0414  1.0000  0.0170  -1.4808   0.0000   0.0000   0.0000   0.0689
 -14.100  -0.2741   0.16216   0.15966  -0.0415  1.0000  0.0170  -1.4904   0.0000   0.0000   0.0000   0.0675
 -14.000  -0.2727   0.16099   0.15850  -0.0417  1.0000  0.0170  -1.4999   0.0000   0.0000   0.0000   0.0661
 -13.900  -0.2714   0.15982   0.15734  -0.0418  1.0000  0.0170  -1.5098   0.0000   0.0000   0.0000   0.0649
 -13.800  -0.2702   0.15866   0.15619  -0.0420  1.0000  0.0170  -1.5201   0.0000   0.0000   0.0000   0.0639
 -13.700  -0.2690   0.15749   0.15503  -0.0421  1.0000  0.0170  -1.5307   0.0000   0.0000   0.0000   0.0629
 -13.600  -0.2680   0.15632   0.15387  -0.0422  1.0000  0.0170  -1.5418   0.0000   0.0000   0.0000   0.0620
 -13.500  -0.2669   0.15515   0.15271  -0.0422  1.0000  0.0170  -1.5529   0.0000   0.0000   0.0000   0.0613
 -13.400  -0.2660   0.15397   0.15154  -0.0423  1.0000  0.0171  -1.5641   0.0000   0.0000   0.0000   0.0607
 -13.300  -0.2651   0.15280   0.15038  -0.0423  1.0000  0.0171  -1.5760   0.0000   0.0000   0.0000   0.0603
 -13.200  -0.2644   0.15165   0.14924  -0.0422  1.0000  0.0171  -1.5883   0.0000   0.0000   0.0000   0.0601
 -13.100  -0.2639   0.15050   0.14810  -0.0422  1.0000  0.0171  -1.6013   0.0000   0.0000   0.0000   0.0603
 -13.000  -0.2636   0.14938   0.14699  -0.0420  1.0000  0.0171  -1.6150   0.0000   0.0000   0.0000   0.0608
 -12.900  -0.2636   0.14828   0.14591  -0.0419  1.0000  0.0171  -1.6293   0.0000   0.0000   0.0000   0.0617
 -12.800  -0.2631   0.14712   0.14476  -0.0418  1.0000  0.0171  -1.6445   0.0000   0.0000   0.0000   0.0618
 -12.700  -0.2577   0.14520   0.14285  -0.0433  0.9996  0.0171  -1.6624   0.0000   0.0000   0.0000   0.0521
 -12.600  -0.2524   0.14329   0.14093  -0.0448  0.9992  0.0171  -1.6824   0.0000   0.0000   0.0000   0.0422
 -12.500  -0.2472   0.14137   0.13901  -0.0463  0.9988  0.0171  -1.7047   0.0000   0.0000   0.0000   0.0320
 -12.400  -0.2421   0.13942   0.13706  -0.0477  0.9984  0.0171  -1.7297   0.0000   0.0000   0.0000   0.0215
 -12.300  -0.2371   0.13745   0.13509  -0.0492  0.9979  0.0171  -1.7581   0.0000   0.0000   0.0000   0.0106
 -12.200  -0.2322   0.13546   0.13310  -0.0506  0.9974  0.0171  -1.7902   0.0000   0.0000   0.0000  -0.0006
 -12.100  -0.2274   0.13347   0.13111  -0.0521  0.9969  0.0171  -1.8256   0.0000   0.0000   0.0000  -0.0124
 -12.000  -0.2225   0.13150   0.12914  -0.0536  0.9964  0.0171  -1.8612   0.0000   0.0000   0.0000  -0.0248
 -11.900  -0.2175   0.12958   0.12722  -0.0551  0.9959  0.0171  -1.8916   0.0000   0.0000   0.0000  -0.0380
 -11.800  -0.2125   0.12769   0.12533  -0.0566  0.9953  0.0171  -1.9148   0.0000   0.0000   0.0000  -0.0518
 -11.700  -0.2074   0.12583   0.12347  -0.0581  0.9945  0.0172  -1.9319   0.0000   0.0000   0.0000  -0.0660
 -11.600  -0.2023   0.12400   0.12163  -0.0596  0.9938  0.0172  -1.9450   0.0000   0.0000   0.0000  -0.0812
 -11.500  -0.1972   0.12217   0.11981  -0.0611  0.9930  0.0172  -1.9556   0.0000   0.0000   0.0000  -0.0972
 -11.400  -0.1920   0.12035   0.11798  -0.0626  0.9923  0.0172  -1.9648   0.0000   0.0000   0.0000  -0.1142
 -11.300  -0.1868   0.11852   0.11615  -0.0641  0.9916  0.0172  -1.9731   0.0000   0.0000   0.0000  -0.1323
 -11.200  -0.1816   0.11666   0.11429  -0.0656  0.9910  0.0172  -1.9816   0.0000   0.0000   0.0000  -0.1515
 -11.100  -0.1766   0.11469   0.11232  -0.0672  0.9904  0.0171  -1.9934   0.0000   0.0000   0.0000  -0.1714
 -10.700  -0.1544   0.10772   0.10535  -0.0735  0.9850  0.0173  -2.0042   0.0000   0.0000   0.0000  -0.2720
 -10.600  -0.1485   0.10589   0.10352  -0.0753  0.9839  0.0173  -2.0090   0.0000   0.0000   0.0000  -0.3048
 -10.000  -0.1318   0.09306   0.09071  -0.0837  0.9693  0.0165  -2.1904   0.0000   0.0000   0.0000  -0.4374
  -9.900  -0.1309   0.09065   0.08830  -0.0853  0.9658  0.0161  -2.2489   0.0000   0.0000   0.0000  -0.4546
  -9.800  -0.1286   0.08816   0.08581  -0.0874  0.9632  0.0158  -2.3053   0.0000   0.0000   0.0000  -0.4829
  -9.700  -0.1274   0.08571   0.08336  -0.0892  0.9592  0.0155  -2.3669   0.0000   0.0000   0.0000  -0.5040
  -9.600  -0.1263   0.08302   0.08067  -0.0913  0.9552  0.0153  -2.4426   0.0000   0.0000   0.0000  -0.5272
  -9.500  -0.1252   0.07980   0.07745  -0.0942  0.9523  0.0150  -2.5461   0.0000   0.0000   0.0000  -0.5573
  -9.400  -0.1258   0.07572   0.07337  -0.0982  0.9498  0.0147  -2.7140   0.0000   0.0000   0.0000  -0.5855
  -9.300  -0.1338   0.06938   0.06703  -0.1043  0.9452  0.0144  -3.0556   0.0000   0.0000   0.0000  -0.5817
  -9.200  -0.2021   0.02064   0.01650  -0.1765  0.9083  0.0141  -5.6009   0.0000   0.0000   0.0000  -0.6615
  -9.100  -0.1873   0.01985   0.01558  -0.1784  0.9042  0.0144  -5.5180   0.0000   0.0000   0.0000  -0.7425
  -9.000  -0.1718   0.01920   0.01481  -0.1801  0.9005  0.0148  -5.4222   0.0000   0.0000   0.0000  -0.8418
  -8.900  -0.1559   0.01868   0.01418  -0.1817  0.8972  0.0151  -5.3175   0.0000   0.0000   0.0000  -0.9631
  -8.800  -0.1441   0.01831   0.01374  -0.1824  0.8929  0.0154  -5.2250   0.0000   0.0000   0.0000  -1.0667
  -8.700  -0.1319   0.01799   0.01334  -0.1831  0.8885  0.0156  -5.1281   0.0000   0.0000   0.0000  -1.1927
  -8.600  -0.1188   0.01770   0.01298  -0.1838  0.8845  0.0159  -5.0258   0.0000   0.0000   0.0000  -1.3568
  -8.500  -0.1052   0.01744   0.01264  -0.1847  0.8807  0.0161  -4.9201   0.0000   0.0000   0.0000  -1.5718
  -8.400  -0.0912   0.01720   0.01233  -0.1855  0.8772  0.0163  -4.8125   0.0000   0.0000   0.0000  -1.8590
  -8.300  -0.0796   0.01699   0.01206  -0.1859  0.8733  0.0164  -4.7157   0.0000   0.0000   0.0000  -2.1698
  -8.200  -0.0688   0.01678   0.01181  -0.1861  0.8691  0.0165  -4.6226   0.0000   0.0000   0.0000  -2.5541
  -8.100  -0.0572   0.01658   0.01155  -0.1865  0.8650  0.0167  -4.5273   0.0000   0.0000   0.0000  -3.1266
  -8.000  -0.0450   0.01637   0.01128  -0.1869  0.8611  0.0168  -4.4309   0.0000   0.0000   0.0000  -4.0431
  -7.900  -0.0325   0.01616   0.01100  -0.1874  0.8575  0.0168  -4.3343   0.0000   0.0000   0.0000  -5.7085
  -7.800  -0.0197   0.01597   0.01074  -0.1880  0.8542  0.0169  -4.2362   0.0000   0.0000   0.0000  -9.5882
  -7.700  -0.0086   0.01587   0.01061  -0.1881  0.8510  0.0170  -4.1396   0.0000   0.0000   0.0000  -22.4101
  -7.600   0.0025   0.01575   0.01047  -0.1883  0.8476  0.0171  -4.0453   0.0000   0.0000   0.0000  78.7853
  -7.500   0.0139   0.01553   0.01020  -0.1885  0.8442  0.0171  -3.9576   0.0000   0.0000   0.0000  14.2381
  -7.400   0.0257   0.01520   0.00979  -0.1889  0.8408  0.0171  -3.8769   0.0000   0.0000   0.0000   7.8349
  -7.300   0.0377   0.01491   0.00941  -0.1894  0.8377  0.0171  -3.7941   0.0000   0.0000   0.0000   5.4248
  -7.200   0.0500   0.01464   0.00907  -0.1898  0.8347  0.0171  -3.7092   0.0000   0.0000   0.0000   4.1646
  -7.100   0.0624   0.01441   0.00877  -0.1903  0.8319  0.0171  -3.6225   0.0000   0.0000   0.0000   3.3908
  -7.000   0.0748   0.01420   0.00849  -0.1907  0.8291  0.0171  -3.5351   0.0000   0.0000   0.0000   2.8754
  -6.900   0.0860   0.01400   0.00823  -0.1909  0.8268  0.0171  -3.4496   0.0000   0.0000   0.0000   2.5333
  -6.800   0.0974   0.01382   0.00802  -0.1911  0.8242  0.0172  -3.3659   0.0000   0.0000   0.0000   2.2670
  -6.700   0.1090   0.01365   0.00782  -0.1913  0.8215  0.0172  -3.2814   0.0000   0.0000   0.0000   2.0545
  -6.600   0.1206   0.01351   0.00764  -0.1915  0.8186  0.0172  -3.1964   0.0000   0.0000   0.0000   1.8812
  -6.500   0.1324   0.01338   0.00747  -0.1918  0.8156  0.0172  -3.1110   0.0000   0.0000   0.0000   1.7377
  -6.400   0.1442   0.01328   0.00733  -0.1920  0.8125  0.0173  -3.0251   0.0000   0.0000   0.0000   1.6168
  -6.300   0.1560   0.01320   0.00721  -0.1922  0.8093  0.0173  -2.9387   0.0000   0.0000   0.0000   1.5137
  -6.200   0.1679   0.01317   0.00713  -0.1924  0.8060  0.0173  -2.8511   0.0000   0.0000   0.0000   1.4246
  -6.100   0.1794   0.01313   0.00709  -0.1925  0.8029  0.0174  -2.7652   0.0000   0.0000   0.0000   1.3495
  -6.000   0.1910   0.01289   0.00682  -0.1927  0.8000  0.0175  -2.6912   0.0000   0.0000   0.0000   1.2837
  -5.900   0.2028   0.01267   0.00655  -0.1930  0.7967  0.0176  -2.6171   0.0000   0.0000   0.0000   1.2247
  -5.800   0.2147   0.01245   0.00628  -0.1933  0.7931  0.0177  -2.5429   0.0000   0.0000   0.0000   1.1715
  -5.700   0.2268   0.01225   0.00602  -0.1936  0.7895  0.0178  -2.4688   0.0000   0.0000   0.0000   1.1234
  -5.600   0.2391   0.01206   0.00577  -0.1940  0.7858  0.0180  -2.3948   0.0000   0.0000   0.0000   1.0797
  -5.500   0.2515   0.01190   0.00554  -0.1944  0.7820  0.0181  -2.3288   0.0000   0.0000   0.0000   1.0400
  -5.400   0.2642   0.01175   0.00532  -0.1948  0.7777  0.0184  -2.2829   0.0000   0.0000   0.0000   1.0032
  -5.300   0.2760   0.01157   0.00512  -0.1951  0.7748  0.0186  -2.2389   0.0000   0.0000   0.0000   0.9717
  -5.200   0.2879   0.01140   0.00493  -0.1953  0.7712  0.0190  -2.1942   0.0000   0.0000   0.0000   0.9424
  -5.100   0.2999   0.01126   0.00476  -0.1956  0.7671  0.0193  -2.1485   0.0000   0.0000   0.0000   0.9154
  -5.000   0.3118   0.01115   0.00461  -0.1958  0.7629  0.0198  -2.1015   0.0000   0.0000   0.0000   0.8903
  -4.900   0.3237   0.01106   0.00448  -0.1960  0.7587  0.0203  -2.0529   0.0000   0.0000   0.0000   0.8672
  -4.800   0.3355   0.01100   0.00438  -0.1962  0.7545  0.0208  -2.0025   0.0000   0.0000   0.0000   0.8457
  -4.700   0.3472   0.01096   0.00430  -0.1963  0.7502  0.0213  -1.9503   0.0000   0.0000   0.0000   0.8258
  -4.600   0.3589   0.01088   0.00423  -0.1965  0.7472  0.0218  -1.8968   0.0000   0.0000   0.0000   0.8072
  -4.500   0.3706   0.01081   0.00416  -0.1966  0.7438  0.0223  -1.8426   0.0000   0.0000   0.0000   0.7898
  -4.400   0.3822   0.01076   0.00410  -0.1967  0.7403  0.0227  -1.7878   0.0000   0.0000   0.0000   0.7735
  -4.300   0.3938   0.01072   0.00403  -0.1968  0.7367  0.0233  -1.7318   0.0000   0.0000   0.0000   0.7582
  -4.200   0.4056   0.01067   0.00395  -0.1970  0.7333  0.0236  -1.6803   0.0000   0.0000   0.0000   0.7436
  -4.100   0.4174   0.01062   0.00387  -0.1972  0.7300  0.0239  -1.6298   0.0000   0.0000   0.0000   0.7298
  -4.000   0.4292   0.01057   0.00378  -0.1973  0.7267  0.0242  -1.5805   0.0000   0.0000   0.0000   0.7167
  -3.900   0.4412   0.01053   0.00370  -0.1975  0.7236  0.0244  -1.5319   0.0000   0.0000   0.0000   0.7043
  -3.800   0.4532   0.01049   0.00364  -0.1978  0.7208  0.0248  -1.4824   0.0000   0.0000   0.0000   0.6925
  -3.700   0.4651   0.01044   0.00360  -0.1979  0.7191  0.0254  -1.4281   0.0000   0.0000   0.0000   0.6814
  -3.600   0.4767   0.01042   0.00359  -0.1980  0.7171  0.0262  -1.3726   0.0000   0.0000   0.0000   0.6709
  -3.500   0.4882   0.01041   0.00359  -0.1981  0.7150  0.0268  -1.3176   0.0000   0.0000   0.0000   0.6610
  -3.400   0.5015   0.01025   0.00341  -0.1987  0.7126  0.0277  -1.2757   0.0000   0.0000   0.0000   0.6510
  -3.300   0.5143   0.01013   0.00327  -0.1991  0.7100  0.0286  -1.2340   0.0000   0.0000   0.0000   0.6417
  -3.200   0.5267   0.01006   0.00318  -0.1994  0.7073  0.0293  -1.1913   0.0000   0.0000   0.0000   0.6328
  -3.100   0.5389   0.01000   0.00310  -0.1996  0.7045  0.0295  -1.1503   0.0000   0.0000   0.0000   0.6244
  -3.000   0.5510   0.00995   0.00302  -0.1998  0.7017  0.0296  -1.1102   0.0000   0.0000   0.0000   0.6163
  -2.900   0.5631   0.00991   0.00295  -0.2000  0.6988  0.0298  -1.0703   0.0000   0.0000   0.0000   0.6086
  -2.800   0.5750   0.00988   0.00288  -0.2001  0.6960  0.0300  -1.0307   0.0000   0.0000   0.0000   0.6013
  -2.700   0.5869   0.00986   0.00282  -0.2003  0.6931  0.0303  -0.9912   0.0000   0.0000   0.0000   0.5942
  -2.600   0.5988   0.00983   0.00277  -0.2004  0.6906  0.0306  -0.9518   0.0000   0.0000   0.0000   0.5874
  -2.500   0.6110   0.00979   0.00272  -0.2006  0.6884  0.0310  -0.9121   0.0000   0.0000   0.0000   0.5809
  -2.400   0.6230   0.00975   0.00267  -0.2008  0.6861  0.0314  -0.8812   0.0000   0.0000   0.0000   0.5746
  -2.300   0.6351   0.00972   0.00260  -0.2010  0.6836  0.0320  -0.8899   0.0000   0.0000   0.0000   0.5685
  -2.200   0.6470   0.00970   0.00256  -0.2011  0.6809  0.0327  -0.8986   0.0000   0.0000   0.0000   0.5627
  -2.100   0.6588   0.00968   0.00253  -0.2012  0.6781  0.0336  -0.9072   0.0000   0.0000   0.0000   0.5571
  -2.000   0.6705   0.00967   0.00249  -0.2013  0.6753  0.0345  -0.9158   0.0000   0.0000   0.0000   0.5517
  -1.900   0.6821   0.00967   0.00245  -0.2014  0.6723  0.0355  -0.9244   0.0000   0.0000   0.0000   0.5465
  -1.800   0.6936   0.00967   0.00242  -0.2014  0.6693  0.0364  -0.9329   0.0000   0.0000   0.0000   0.5415
  -1.700   0.7050   0.00968   0.00239  -0.2015  0.6661  0.0372  -0.9414   0.0000   0.0000   0.0000   0.5367
  -1.600   0.7164   0.00970   0.00237  -0.2015  0.6629  0.0382  -0.9500   0.0000   0.0000   0.0000   0.5320
  -1.500   0.7280   0.00971   0.00235  -0.2016  0.6601  0.0393  -0.9600   0.0000   0.0000   0.0000   0.5275
  -1.400   0.7398   0.00969   0.00233  -0.2017  0.6582  0.0401  -0.9702   0.0000   0.0000   0.0000   0.5230
  -1.300   0.7516   0.00968   0.00232  -0.2018  0.6559  0.0409  -0.9804   0.0000   0.0000   0.0000   0.5187
  -1.200   0.7633   0.00967   0.00231  -0.2019  0.6532  0.0416  -0.9906   0.0000   0.0000   0.0000   0.5146
  -1.100   0.7749   0.00967   0.00230  -0.2020  0.6501  0.0423  -1.0008   0.0000   0.0000   0.0000   0.5105
  -1.000   0.7865   0.00967   0.00229  -0.2021  0.6468  0.0430  -1.0109   0.0000   0.0000   0.0000   0.5066
  -0.900   0.7979   0.00968   0.00228  -0.2021  0.6432  0.0438  -1.0210   0.0000   0.0000   0.0000   0.5028
  -0.800   0.8092   0.00970   0.00227  -0.2021  0.6394  0.0448  -1.0310   0.0000   0.0000   0.0000   0.4991
  -0.700   0.8204   0.00972   0.00227  -0.2021  0.6356  0.0456  -1.0410   0.0000   0.0000   0.0000   0.4956
  -0.600   0.8314   0.00975   0.00227  -0.2021  0.6319  0.0463  -1.0509   0.0000   0.0000   0.0000   0.4921
  -0.500   0.8426   0.00978   0.00227  -0.2021  0.6285  0.0471  -1.0608   0.0000   0.0000   0.0000   0.4887
  -0.400   0.8542   0.00978   0.00228  -0.2021  0.6256  0.0480  -1.0711   0.0000   0.0000   0.0000   0.4854
  -0.300   0.8658   0.00979   0.00229  -0.2022  0.6224  0.0491  -1.0813   0.0000   0.0000   0.0000   0.4822
  -0.200   0.8772   0.00980   0.00230  -0.2023  0.6190  0.0503  -1.0915   0.0000   0.0000   0.0000   0.4790
  -0.100   0.8886   0.00981   0.00232  -0.2023  0.6153  0.0518  -1.1016   0.0000   0.0000   0.0000   0.4760
   0.000   0.8998   0.00983   0.00233  -0.2023  0.6115  0.0630  -1.1116   0.0000   0.0000   0.0000   0.4730


