xflr5 v6.59

 Calculated polar for: WORTMANN FX 63-137 AIRFOIL

 1 1 Reynolds number fixed          Mach number fixed         

 xtrf =   1.000 (top)        1.000 (bottom)
 Mach =   0.000     Re =     4.000 e 6     Ncrit =   9.000

  alpha     CL        CD       CDp       Cm    Top Xtr Bot Xtr   Cpmin    Chinge    XCp    
 ------- -------- --------- --------- -------- ------- ------- -------- --------- ---------
  -8.000  -0.0233   0.00897   0.00307  -0.1982  0.4172  0.0063  -4.6085   0.0000   0.0000   0.0000  -8.5455
  -7.900  -0.0115   0.00894   0.00301  -0.1983  0.4115  0.0063  -4.5046   0.0000   0.0000   0.0000  -17.6183
  -7.800   0.0005   0.00890   0.00295  -0.1985  0.4055  0.0063  -4.4010   0.0000   0.0000   0.0000  438.0140
  -7.700   0.0125   0.00886   0.00289  -0.1987  0.4021  0.0062  -4.3055   0.0000   0.0000   0.0000  16.6134
  -7.600   0.0246   0.00881   0.00283  -0.1989  0.4010  0.0062  -4.2283   0.0000   0.0000   0.0000   8.5795
  -7.500   0.0367   0.00876   0.00277  -0.1991  0.3997  0.0061  -4.1517   0.0000   0.0000   0.0000   5.8415
  -7.400   0.0487   0.00872   0.00272  -0.1993  0.3979  0.0061  -4.0757   0.0000   0.0000   0.0000   4.4624
  -7.300   0.0608   0.00868   0.00267  -0.1995  0.3974  0.0061  -3.9999   0.0000   0.0000   0.0000   3.6254
  -7.200   0.0719   0.00871   0.00265  -0.1995  0.3820  0.0060  -3.9280   0.0000   0.0000   0.0000   3.1048
  -7.100   0.0832   0.00874   0.00262  -0.1995  0.3687  0.0060  -3.8558   0.0000   0.0000   0.0000   2.7169
  -7.000   0.0950   0.00872   0.00258  -0.1996  0.3642  0.0060  -3.7821   0.0000   0.0000   0.0000   2.4112
  -6.900   0.1070   0.00869   0.00253  -0.1998  0.3631  0.0060  -3.7079   0.0000   0.0000   0.0000   2.1695
  -6.800   0.1187   0.00868   0.00250  -0.1999  0.3594  0.0059  -3.6353   0.0000   0.0000   0.0000   1.9797
  -6.700   0.1304   0.00867   0.00247  -0.2000  0.3553  0.0059  -3.5632   0.0000   0.0000   0.0000   1.8245
  -6.600   0.1422   0.00866   0.00244  -0.2002  0.3510  0.0058  -3.4913   0.0000   0.0000   0.0000   1.6947
  -6.500   0.1540   0.00865   0.00241  -0.2003  0.3465  0.0058  -3.4193   0.0000   0.0000   0.0000   1.5841
  -6.400   0.1659   0.00863   0.00238  -0.2004  0.3417  0.0058  -3.3472   0.0000   0.0000   0.0000   1.4889
  -6.300   0.1778   0.00861   0.00236  -0.2006  0.3390  0.0058  -3.2749   0.0000   0.0000   0.0000   1.4061
  -6.200   0.1898   0.00859   0.00233  -0.2007  0.3383  0.0058  -3.2027   0.0000   0.0000   0.0000   1.3335
  -6.100   0.2017   0.00857   0.00230  -0.2009  0.3374  0.0058  -3.1306   0.0000   0.0000   0.0000   1.2697
  -6.000   0.2136   0.00855   0.00228  -0.2010  0.3364  0.0058  -3.0587   0.0000   0.0000   0.0000   1.2130
  -5.900   0.2255   0.00853   0.00226  -0.2011  0.3350  0.0058  -2.9866   0.0000   0.0000   0.0000   1.1625
  -5.800   0.2375   0.00851   0.00224  -0.2013  0.3344  0.0057  -2.9141   0.0000   0.0000   0.0000   1.1169
  -5.600   0.2595   0.00862   0.00227  -0.2013  0.3077  0.0057  -2.7727   0.0000   0.0000   0.0000   1.0424
  -5.500   0.2710   0.00864   0.00227  -0.2013  0.3037  0.0056  -2.6918   0.0000   0.0000   0.0000   1.0086
  -5.400   0.2813   0.00875   0.00244  -0.2011  0.2998  0.0056  -2.5390   0.0000   0.0000   0.0000   0.9800
  -5.300   0.2929   0.00876   0.00243  -0.2012  0.2958  0.0056  -2.4741   0.0000   0.0000   0.0000   0.9511
  -5.200   0.3045   0.00877   0.00242  -0.2013  0.2917  0.0056  -2.4113   0.0000   0.0000   0.0000   0.9244
  -5.100   0.3162   0.00877   0.00240  -0.2014  0.2874  0.0055  -2.3502   0.0000   0.0000   0.0000   0.8994
  -5.000   0.3281   0.00876   0.00238  -0.2015  0.2827  0.0055  -2.2906   0.0000   0.0000   0.0000   0.8761
  -4.900   0.3400   0.00874   0.00236  -0.2017  0.2792  0.0054  -2.2324   0.0000   0.0000   0.0000   0.8543
  -4.800   0.3520   0.00872   0.00233  -0.2019  0.2782  0.0054  -2.1755   0.0000   0.0000   0.0000   0.8340
  -4.700   0.3640   0.00870   0.00230  -0.2020  0.2775  0.0054  -2.1201   0.0000   0.0000   0.0000   0.8149
  -4.600   0.3760   0.00867   0.00227  -0.2022  0.2767  0.0054  -2.0661   0.0000   0.0000   0.0000   0.7971
  -4.500   0.3880   0.00865   0.00225  -0.2023  0.2757  0.0053  -2.0136   0.0000   0.0000   0.0000   0.7804
  -4.400   0.4000   0.00863   0.00221  -0.2025  0.2746  0.0053  -1.9636   0.0000   0.0000   0.0000   0.7646
  -4.300   0.4121   0.00861   0.00218  -0.2027  0.2743  0.0053  -1.9138   0.0000   0.0000   0.0000   0.7498
  -4.200   0.4225   0.00872   0.00221  -0.2025  0.2520  0.0053  -1.8695   0.0000   0.0000   0.0000   0.7369
  -4.100   0.4343   0.00872   0.00218  -0.2027  0.2474  0.0052  -1.8243   0.0000   0.0000   0.0000   0.7238
  -4.000   0.4465   0.00869   0.00211  -0.2029  0.2444  0.0052  -1.8126   0.0000   0.0000   0.0000   0.7110
  -3.900   0.4584   0.00869   0.00208  -0.2030  0.2414  0.0052  -1.7856   0.0000   0.0000   0.0000   0.6992
  -3.800   0.4701   0.00870   0.00207  -0.2031  0.2385  0.0052  -1.7467   0.0000   0.0000   0.0000   0.6880
  -3.700   0.4819   0.00870   0.00206  -0.2032  0.2355  0.0053  -1.7071   0.0000   0.0000   0.0000   0.6774
  -3.600   0.4946   0.00863   0.00203  -0.2036  0.2324  0.0134  -1.7423   0.0000   0.0000   0.0000   0.6669
  -3.500   0.5063   0.00864   0.00203  -0.2037  0.2293  0.0140  -1.6785   0.0000   0.0000   0.0000   0.6573
  -3.400   0.5180   0.00865   0.00203  -0.2038  0.2257  0.0145  -1.6148   0.0000   0.0000   0.0000   0.6481
  -3.300   0.5297   0.00865   0.00204  -0.2039  0.2230  0.0148  -1.5503   0.0000   0.0000   0.0000   0.6393
  -3.200   0.5414   0.00866   0.00204  -0.2040  0.2219  0.0151  -1.4848   0.0000   0.0000   0.0000   0.6309
  -3.100   0.5530   0.00867   0.00205  -0.2041  0.2215  0.0153  -1.4179   0.0000   0.0000   0.0000   0.6229
  -3.000   0.5646   0.00868   0.00206  -0.2041  0.2210  0.0156  -1.3500   0.0000   0.0000   0.0000   0.6152
  -2.900   0.5762   0.00869   0.00207  -0.2042  0.2204  0.0158  -1.2822   0.0000   0.0000   0.0000   0.6078
  -2.800   0.5878   0.00870   0.00208  -0.2043  0.2198  0.0160  -1.2164   0.0000   0.0000   0.0000   0.6007
  -2.700   0.5995   0.00870   0.00209  -0.2044  0.2190  0.0161  -1.1544   0.0000   0.0000   0.0000   0.5939
  -2.600   0.6111   0.00871   0.00210  -0.2045  0.2179  0.0162  -1.0977   0.0000   0.0000   0.0000   0.5873
  -2.500   0.6230   0.00871   0.00209  -0.2046  0.2177  0.0163  -1.0484   0.0000   0.0000   0.0000   0.5809
  -2.400   0.6339   0.00879   0.00211  -0.2046  0.2041  0.0161  -1.0177   0.0000   0.0000   0.0000   0.5750
  -2.300   0.6436   0.00898   0.00215  -0.2043  0.1714  0.0156  -1.0094   0.0000   0.0000   0.0000   0.5695
  -2.200   0.6552   0.00899   0.00216  -0.2044  0.1701  0.0158  -0.9535   0.0000   0.0000   0.0000   0.5638
  -2.100   0.6668   0.00900   0.00216  -0.2045  0.1697  0.0159  -0.9258   0.0000   0.0000   0.0000   0.5583
  -2.000   0.6785   0.00901   0.00217  -0.2046  0.1693  0.0161  -0.9346   0.0000   0.0000   0.0000   0.5530
  -1.900   0.6901   0.00902   0.00218  -0.2047  0.1690  0.0162  -0.9433   0.0000   0.0000   0.0000   0.5479
  -1.800   0.7017   0.00904   0.00219  -0.2048  0.1685  0.0163  -0.9521   0.0000   0.0000   0.0000   0.5429
  -1.700   0.7133   0.00905   0.00220  -0.2049  0.1680  0.0164  -0.9609   0.0000   0.0000   0.0000   0.5381
  -1.600   0.7249   0.00906   0.00221  -0.2050  0.1674  0.0165  -0.9710   0.0000   0.0000   0.0000   0.5334
  -1.500   0.7365   0.00907   0.00222  -0.2050  0.1666  0.0166  -0.9813   0.0000   0.0000   0.0000   0.5289
  -1.400   0.7481   0.00909   0.00223  -0.2051  0.1660  0.0166  -0.9917   0.0000   0.0000   0.0000   0.5246
  -1.200   0.7697   0.00925   0.00232  -0.2050  0.1463  0.0167  -1.0121   0.0000   0.0000   0.0000   0.5164
  -1.100   0.7811   0.00928   0.00234  -0.2051  0.1447  0.0168  -1.0225   0.0000   0.0000   0.0000   0.5124
  -1.000   0.7926   0.00930   0.00236  -0.2051  0.1431  0.0168  -1.0328   0.0000   0.0000   0.0000   0.5085
  -0.900   0.8039   0.00933   0.00237  -0.2052  0.1416  0.0168  -1.0431   0.0000   0.0000   0.0000   0.5047
  -0.800   0.8153   0.00937   0.00239  -0.2052  0.1400  0.0169  -1.0534   0.0000   0.0000   0.0000   0.5010
  -0.700   0.8266   0.00940   0.00241  -0.2052  0.1381  0.0169  -1.0637   0.0000   0.0000   0.0000   0.4975
  -0.600   0.8378   0.00945   0.00243  -0.2052  0.1349  0.0169  -1.0739   0.0000   0.0000   0.0000   0.4940
  -0.500   0.8491   0.00948   0.00245  -0.2053  0.1309  0.0171  -1.0842   0.0000   0.0000   0.0000   0.4907
  -0.200   0.8834   0.00955   0.00250  -0.2055  0.1241  0.0186  -1.1153   0.0000   0.0000   0.0000   0.4810
  -0.100   0.8949   0.00958   0.00252  -0.2055  0.1239  0.0187  -1.1257   0.0000   0.0000   0.0000   0.4780
   0.000   0.9063   0.00960   0.00254  -0.2056  0.1236  0.0187  -1.1362   0.0000   0.0000   0.0000   0.4750


