xflr5 v6.59

 Calculated polar for: WORTMANN FX 63-137 AIRFOIL

 1 1 Reynolds number fixed          Mach number fixed         

 xtrf =   1.000 (top)        1.000 (bottom)
 Mach =   0.000     Re =     3.200 e 6     Ncrit =   9.000

  alpha     CL        CD       CDp       Cm    Top Xtr Bot Xtr   Cpmin    Chinge    XCp    
 ------- -------- --------- --------- -------- ------- ------- -------- --------- ---------
 -11.600  -0.0755   0.09376   0.09094  -0.1156  0.5975  0.0114  -2.6985   0.0000   0.0000   0.0000  -1.4028
 -11.500  -0.0718   0.09285   0.09003  -0.1161  0.5964  0.0114  -2.6619   0.0000   0.0000   0.0000  -1.4939
 -11.400  -0.0681   0.09196   0.08914  -0.1166  0.5952  0.0115  -2.6244   0.0000   0.0000   0.0000  -1.5955
 -11.300  -0.0643   0.09109   0.08826  -0.1171  0.5937  0.0116  -2.5863   0.0000   0.0000   0.0000  -1.7092
 -11.200  -0.0605   0.09023   0.08741  -0.1175  0.5915  0.0117  -2.5476   0.0000   0.0000   0.0000  -1.8366
 -10.900  -0.0290   0.09316   0.09017  -0.1166  0.5544  0.0139  -1.9690   0.0000   0.0000   0.0000  -4.0620
 -10.800  -0.0252   0.09230   0.08929  -0.1170  0.5500  0.0144  -1.9380   0.0000   0.0000   0.0000  -4.7141
 -10.700  -0.0210   0.09152   0.08849  -0.1174  0.5453  0.0151  -1.9034   0.0000   0.0000   0.0000  -5.7309
 -10.600  -0.0152   0.09098   0.08793  -0.1177  0.5399  0.0159  -1.8537   0.0000   0.0000   0.0000  -8.0284
 -10.500  -0.0097   0.09035   0.08728  -0.1181  0.5346  0.0164  -1.8118   0.0000   0.0000   0.0000  -12.7333
 -10.400  -0.0055   0.08942   0.08635  -0.1185  0.5322  0.0165  -1.7881   0.0000   0.0000   0.0000  -22.8027
 -10.300  -0.0020   0.08832   0.08526  -0.1190  0.5311  0.0166  -1.7756   0.0000   0.0000   0.0000  -64.7968
 -10.200   0.0012   0.08713   0.08406  -0.1196  0.5309  0.0167  -1.7694   0.0000   0.0000   0.0000  106.4109
 -10.100   0.0038   0.08585   0.08278  -0.1202  0.5300  0.0167  -1.7700   0.0000   0.0000   0.0000  33.7844
 -10.000   0.0061   0.08450   0.08143  -0.1208  0.5289  0.0168  -1.7754   0.0000   0.0000   0.0000  21.4359
  -9.900   0.0079   0.08307   0.08001  -0.1215  0.5275  0.0168  -1.7863   0.0000   0.0000   0.0000  16.5623
  -9.800   0.0092   0.08155   0.07848  -0.1222  0.5266  0.0167  -1.8045   0.0000   0.0000   0.0000  14.2767
  -9.700   0.0093   0.07976   0.07671  -0.1230  0.5263  0.0167  -1.8414   0.0000   0.0000   0.0000  14.3118
  -9.200  -0.1629   0.00960   0.00432  -0.1958  0.6051  0.0065  -5.9096   0.0000   0.0000   0.0000  -1.0003
  -9.100  -0.1511   0.00952   0.00419  -0.1960  0.5954  0.0064  -5.7966   0.0000   0.0000   0.0000  -1.0983
  -8.900  -0.1289   0.00943   0.00397  -0.1962  0.5616  0.0064  -5.5793   0.0000   0.0000   0.0000  -1.3311
  -8.800  -0.1172   0.00936   0.00386  -0.1964  0.5524  0.0063  -5.4690   0.0000   0.0000   0.0000  -1.4888
  -8.700  -0.1055   0.00930   0.00376  -0.1966  0.5463  0.0063  -5.3590   0.0000   0.0000   0.0000  -1.6832
  -8.600  -0.0937   0.00924   0.00366  -0.1968  0.5399  0.0063  -5.2494   0.0000   0.0000   0.0000  -1.9279
  -8.500  -0.0817   0.00917   0.00356  -0.1970  0.5336  0.0063  -5.1398   0.0000   0.0000   0.0000  -2.2487
  -8.400  -0.0695   0.00909   0.00347  -0.1973  0.5315  0.0062  -5.0302   0.0000   0.0000   0.0000  -2.6874
  -8.300  -0.0574   0.00902   0.00338  -0.1975  0.5299  0.0062  -4.9214   0.0000   0.0000   0.0000  -3.3110
  -8.200  -0.0453   0.00896   0.00330  -0.1977  0.5275  0.0062  -4.8138   0.0000   0.0000   0.0000  -4.2634
  -8.000  -0.0222   0.00891   0.00317  -0.1979  0.5096  0.0061  -4.6060   0.0000   0.0000   0.0000  -8.9664
  -7.900  -0.0109   0.00892   0.00311  -0.1980  0.4963  0.0061  -4.5046   0.0000   0.0000   0.0000  -18.5108
  -7.800   0.0008   0.00889   0.00304  -0.1981  0.4901  0.0061  -4.4020   0.0000   0.0000   0.0000  247.4187
  -7.700   0.0125   0.00887   0.00299  -0.1983  0.4839  0.0060  -4.3006   0.0000   0.0000   0.0000  16.6562
  -7.600   0.0241   0.00885   0.00293  -0.1984  0.4775  0.0060  -4.2187   0.0000   0.0000   0.0000   8.7358
  -7.500   0.0359   0.00882   0.00287  -0.1985  0.4705  0.0060  -4.1431   0.0000   0.0000   0.0000   5.9481
  -7.400   0.0479   0.00878   0.00281  -0.1987  0.4667  0.0060  -4.0673   0.0000   0.0000   0.0000   4.5208
  -7.300   0.0600   0.00873   0.00276  -0.1989  0.4652  0.0059  -3.9917   0.0000   0.0000   0.0000   3.6630
  -7.200   0.0720   0.00869   0.00270  -0.1991  0.4631  0.0059  -3.9167   0.0000   0.0000   0.0000   3.0942
  -7.100   0.0841   0.00865   0.00265  -0.1993  0.4613  0.0059  -3.8421   0.0000   0.0000   0.0000   2.6878
  -7.000   0.0954   0.00866   0.00262  -0.1993  0.4499  0.0059  -3.7702   0.0000   0.0000   0.0000   2.3974
  -6.900   0.1068   0.00867   0.00258  -0.1994  0.4406  0.0059  -3.6982   0.0000   0.0000   0.0000   2.1687
  -6.800   0.1183   0.00868   0.00255  -0.1995  0.4314  0.0059  -3.6262   0.0000   0.0000   0.0000   1.9818
  -6.700   0.1300   0.00867   0.00251  -0.1996  0.4263  0.0059  -3.5538   0.0000   0.0000   0.0000   1.8261
  -6.600   0.1417   0.00867   0.00248  -0.1997  0.4212  0.0059  -3.4820   0.0000   0.0000   0.0000   1.6967
  -6.500   0.1532   0.00867   0.00245  -0.1998  0.4160  0.0059  -3.4106   0.0000   0.0000   0.0000   1.5873
  -6.400   0.1649   0.00866   0.00242  -0.1999  0.4104  0.0059  -3.3391   0.0000   0.0000   0.0000   1.4927
  -6.300   0.1767   0.00865   0.00239  -0.2000  0.4045  0.0059  -3.2676   0.0000   0.0000   0.0000   1.4099
  -6.200   0.1887   0.00862   0.00236  -0.2002  0.4019  0.0059  -3.1959   0.0000   0.0000   0.0000   1.3367
  -6.100   0.2007   0.00859   0.00233  -0.2003  0.4007  0.0059  -3.1247   0.0000   0.0000   0.0000   1.2722
  -6.000   0.2126   0.00857   0.00230  -0.2005  0.3993  0.0058  -3.0539   0.0000   0.0000   0.0000   1.2151
  -5.900   0.2245   0.00855   0.00228  -0.2006  0.3971  0.0058  -2.9833   0.0000   0.0000   0.0000   1.1642
  -5.700   0.2471   0.00861   0.00228  -0.2007  0.3776  0.0058  -2.8436   0.0000   0.0000   0.0000   1.0804
  -5.600   0.2584   0.00865   0.00227  -0.2007  0.3677  0.0057  -2.7715   0.0000   0.0000   0.0000   1.0439
  -5.500   0.2699   0.00866   0.00227  -0.2008  0.3632  0.0057  -2.6936   0.0000   0.0000   0.0000   1.0099
  -5.400   0.2802   0.00877   0.00243  -0.2006  0.3590  0.0057  -2.5457   0.0000   0.0000   0.0000   0.9810
  -5.300   0.2917   0.00878   0.00242  -0.2007  0.3546  0.0057  -2.4794   0.0000   0.0000   0.0000   0.9521
  -5.200   0.3033   0.00879   0.00241  -0.2008  0.3500  0.0057  -2.4153   0.0000   0.0000   0.0000   0.9252
  -5.100   0.3150   0.00879   0.00239  -0.2009  0.3448  0.0057  -2.3530   0.0000   0.0000   0.0000   0.9002
  -5.000   0.3269   0.00877   0.00237  -0.2010  0.3404  0.0056  -2.2922   0.0000   0.0000   0.0000   0.8768
  -4.900   0.3389   0.00875   0.00235  -0.2012  0.3387  0.0056  -2.2327   0.0000   0.0000   0.0000   0.8549
  -4.800   0.3509   0.00873   0.00232  -0.2014  0.3379  0.0056  -2.1747   0.0000   0.0000   0.0000   0.8344
  -4.700   0.3629   0.00870   0.00229  -0.2015  0.3369  0.0056  -2.1181   0.0000   0.0000   0.0000   0.8153
  -4.600   0.3748   0.00868   0.00226  -0.2017  0.3356  0.0056  -2.0630   0.0000   0.0000   0.0000   0.7974
  -4.500   0.3868   0.00866   0.00224  -0.2018  0.3339  0.0056  -2.0095   0.0000   0.0000   0.0000   0.7807
  -4.400   0.3989   0.00864   0.00219  -0.2020  0.3333  0.0055  -1.9580   0.0000   0.0000   0.0000   0.7648
  -4.300   0.4091   0.00876   0.00223  -0.2019  0.3098  0.0055  -1.9111   0.0000   0.0000   0.0000   0.7514
  -4.200   0.4208   0.00877   0.00220  -0.2020  0.3047  0.0055  -1.8623   0.0000   0.0000   0.0000   0.7375
  -4.100   0.4325   0.00877   0.00218  -0.2021  0.3006  0.0055  -1.8153   0.0000   0.0000   0.0000   0.7243
  -4.000   0.4442   0.00878   0.00216  -0.2022  0.2966  0.0056  -1.7705   0.0000   0.0000   0.0000   0.7119
  -3.900   0.4559   0.00879   0.00214  -0.2023  0.2924  0.0056  -1.7309   0.0000   0.0000   0.0000   0.7001
  -3.800   0.4681   0.00876   0.00207  -0.2025  0.2881  0.0057  -1.7280   0.0000   0.0000   0.0000   0.6885
  -3.700   0.4812   0.00867   0.00201  -0.2029  0.2831  0.0138  -1.7893   0.0000   0.0000   0.0000   0.6773
  -3.600   0.4929   0.00867   0.00201  -0.2030  0.2794  0.0143  -1.7210   0.0000   0.0000   0.0000   0.6672
  -3.500   0.5046   0.00868   0.00202  -0.2031  0.2783  0.0148  -1.6506   0.0000   0.0000   0.0000   0.6575
  -3.400   0.5162   0.00868   0.00203  -0.2032  0.2775  0.0151  -1.5774   0.0000   0.0000   0.0000   0.6483
  -3.300   0.5277   0.00870   0.00205  -0.2033  0.2766  0.0155  -1.5015   0.0000   0.0000   0.0000   0.6396
  -3.200   0.5392   0.00872   0.00207  -0.2033  0.2755  0.0158  -1.4248   0.0000   0.0000   0.0000   0.6312
  -3.100   0.5506   0.00874   0.00210  -0.2034  0.2741  0.0161  -1.3500   0.0000   0.0000   0.0000   0.6232
  -3.000   0.5622   0.00874   0.00212  -0.2035  0.2737  0.0163  -1.2785   0.0000   0.0000   0.0000   0.6155
  -2.900   0.5722   0.00889   0.00220  -0.2033  0.2531  0.0165  -1.2162   0.0000   0.0000   0.0000   0.6087
  -2.800   0.5834   0.00893   0.00223  -0.2033  0.2475  0.0166  -1.1535   0.0000   0.0000   0.0000   0.6016
  -2.700   0.5949   0.00895   0.00225  -0.2034  0.2444  0.0167  -1.0941   0.0000   0.0000   0.0000   0.5948
  -2.600   0.6063   0.00898   0.00226  -0.2034  0.2414  0.0168  -1.0392   0.0000   0.0000   0.0000   0.5882
  -2.500   0.6178   0.00900   0.00225  -0.2035  0.2384  0.0168  -0.9917   0.0000   0.0000   0.0000   0.5819
  -2.400   0.6296   0.00901   0.00221  -0.2036  0.2353  0.0167  -0.9592   0.0000   0.0000   0.0000   0.5757
  -2.300   0.6414   0.00903   0.00215  -0.2037  0.2207  0.0163  -0.9578   0.0000   0.0000   0.0000   0.5697
  -2.200   0.6528   0.00906   0.00217  -0.2038  0.2174  0.0164  -0.9138   0.0000   0.0000   0.0000   0.5640
  -2.100   0.6626   0.00923   0.00225  -0.2036  0.1944  0.0165  -0.9226   0.0000   0.0000   0.0000   0.5589
  -2.000   0.6738   0.00927   0.00227  -0.2036  0.1905  0.0166  -0.9314   0.0000   0.0000   0.0000   0.5536
  -1.900   0.6852   0.00930   0.00229  -0.2036  0.1880  0.0167  -0.9401   0.0000   0.0000   0.0000   0.5484
  -1.800   0.6966   0.00933   0.00230  -0.2037  0.1857  0.0168  -0.9488   0.0000   0.0000   0.0000   0.5435
  -1.700   0.7080   0.00936   0.00231  -0.2037  0.1833  0.0169  -0.9575   0.0000   0.0000   0.0000   0.5387
  -1.600   0.7195   0.00938   0.00232  -0.2038  0.1809  0.0170  -0.9662   0.0000   0.0000   0.0000   0.5340
  -1.500   0.7310   0.00940   0.00233  -0.2039  0.1785  0.0170  -0.9764   0.0000   0.0000   0.0000   0.5294
  -1.400   0.7425   0.00942   0.00234  -0.2040  0.1756  0.0171  -0.9868   0.0000   0.0000   0.0000   0.5250
  -0.800   0.8122   0.00949   0.00238  -0.2045  0.1689  0.0186  -1.0494   0.0000   0.0000   0.0000   0.5012
  -0.700   0.8238   0.00951   0.00239  -0.2046  0.1684  0.0188  -1.0599   0.0000   0.0000   0.0000   0.4975
  -0.600   0.8353   0.00952   0.00240  -0.2047  0.1678  0.0189  -1.0703   0.0000   0.0000   0.0000   0.4940
  -0.500   0.8468   0.00955   0.00241  -0.2047  0.1662  0.0190  -1.0808   0.0000   0.0000   0.0000   0.4906
  -0.400   0.8569   0.00969   0.00249  -0.2045  0.1510  0.0191  -1.0911   0.0000   0.0000   0.0000   0.4874
  -0.300   0.8676   0.00978   0.00254  -0.2044  0.1433  0.0192  -1.1014   0.0000   0.0000   0.0000   0.4842
  -0.200   0.8787   0.00983   0.00257  -0.2044  0.1408  0.0192  -1.1117   0.0000   0.0000   0.0000   0.4811
  -0.100   0.8899   0.00987   0.00260  -0.2044  0.1389  0.0191  -1.1220   0.0000   0.0000   0.0000   0.4780
   0.000   0.9011   0.00991   0.00263  -0.2044  0.1370  0.0189  -1.1322   0.0000   0.0000   0.0000   0.4750


