xflr5 v6.59

 Calculated polar for: WORTMANN FX 63-137 AIRFOIL

 1 1 Reynolds number fixed          Mach number fixed         

 xtrf =   1.000 (top)        1.000 (bottom)
 Mach =   0.000     Re =     1.400 e 6     Ncrit =   9.000

  alpha     CL        CD       CDp       Cm    Top Xtr Bot Xtr   Cpmin    Chinge    XCp    
 ------- -------- --------- --------- -------- ------- ------- -------- --------- ---------
 -19.100  -0.3973   0.22043   0.21877  -0.0201  1.0000  0.0046  -1.5073   0.0000   0.0000   0.0000   0.1688
 -19.000  -0.3946   0.21926   0.21760  -0.0206  1.0000  0.0046  -1.5095   0.0000   0.0000   0.0000   0.1673
 -18.900  -0.3918   0.21805   0.21639  -0.0211  1.0000  0.0046  -1.5119   0.0000   0.0000   0.0000   0.1657
 -18.800  -0.3891   0.21683   0.21518  -0.0215  1.0000  0.0046  -1.5143   0.0000   0.0000   0.0000   0.1641
 -18.700  -0.3864   0.21561   0.21396  -0.0220  1.0000  0.0046  -1.5168   0.0000   0.0000   0.0000   0.1625
 -18.600  -0.3837   0.21439   0.21274  -0.0224  1.0000  0.0046  -1.5194   0.0000   0.0000   0.0000   0.1609
 -18.500  -0.3811   0.21316   0.21152  -0.0229  1.0000  0.0046  -1.5221   0.0000   0.0000   0.0000   0.1593
 -18.400  -0.3784   0.21194   0.21030  -0.0234  1.0000  0.0046  -1.5249   0.0000   0.0000   0.0000   0.1577
 -18.300  -0.3758   0.21071   0.20907  -0.0238  1.0000  0.0046  -1.5277   0.0000   0.0000   0.0000   0.1561
 -18.200  -0.3731   0.20948   0.20785  -0.0242  1.0000  0.0046  -1.5306   0.0000   0.0000   0.0000   0.1544
 -18.100  -0.3705   0.20825   0.20662  -0.0247  1.0000  0.0046  -1.5337   0.0000   0.0000   0.0000   0.1528
 -18.000  -0.3679   0.20702   0.20539  -0.0251  1.0000  0.0046  -1.5368   0.0000   0.0000   0.0000   0.1511
 -17.900  -0.3653   0.20579   0.20416  -0.0255  1.0000  0.0046  -1.5399   0.0000   0.0000   0.0000   0.1494
 -17.800  -0.3627   0.20455   0.20292  -0.0260  1.0000  0.0046  -1.5432   0.0000   0.0000   0.0000   0.1478
 -17.700  -0.3601   0.20331   0.20169  -0.0264  1.0000  0.0046  -1.5466   0.0000   0.0000   0.0000   0.1461
 -17.600  -0.3576   0.20208   0.20046  -0.0268  1.0000  0.0046  -1.5501   0.0000   0.0000   0.0000   0.1444
 -17.500  -0.3550   0.20084   0.19922  -0.0272  1.0000  0.0046  -1.5535   0.0000   0.0000   0.0000   0.1427
 -17.400  -0.3525   0.19960   0.19798  -0.0276  1.0000  0.0046  -1.5570   0.0000   0.0000   0.0000   0.1410
 -17.300  -0.3500   0.19836   0.19675  -0.0280  1.0000  0.0046  -1.5606   0.0000   0.0000   0.0000   0.1393
 -17.200  -0.3475   0.19712   0.19551  -0.0284  1.0000  0.0046  -1.5643   0.0000   0.0000   0.0000   0.1376
 -17.100  -0.3451   0.19588   0.19428  -0.0288  1.0000  0.0046  -1.5681   0.0000   0.0000   0.0000   0.1359
 -17.000  -0.3426   0.19464   0.19304  -0.0292  1.0000  0.0046  -1.5720   0.0000   0.0000   0.0000   0.1342
 -16.900  -0.3402   0.19340   0.19180  -0.0295  1.0000  0.0046  -1.5760   0.0000   0.0000   0.0000   0.1325
 -16.800  -0.3379   0.19216   0.19056  -0.0299  1.0000  0.0046  -1.5802   0.0000   0.0000   0.0000   0.1308
 -16.700  -0.3355   0.19091   0.18932  -0.0302  1.0000  0.0046  -1.5844   0.0000   0.0000   0.0000   0.1291
 -16.600  -0.3332   0.18967   0.18808  -0.0306  1.0000  0.0046  -1.5888   0.0000   0.0000   0.0000   0.1274
 -16.500  -0.3309   0.18842   0.18684  -0.0309  1.0000  0.0046  -1.5933   0.0000   0.0000   0.0000   0.1258
 -16.400  -0.3286   0.18718   0.18560  -0.0313  1.0000  0.0046  -1.5979   0.0000   0.0000   0.0000   0.1241
 -16.300  -0.3263   0.18593   0.18435  -0.0316  1.0000  0.0046  -1.6027   0.0000   0.0000   0.0000   0.1224
 -16.200  -0.3241   0.18469   0.18311  -0.0319  1.0000  0.0046  -1.6075   0.0000   0.0000   0.0000   0.1207
 -16.100  -0.3219   0.18344   0.18186  -0.0322  1.0000  0.0046  -1.6126   0.0000   0.0000   0.0000   0.1191
 -16.000  -0.3197   0.18219   0.18062  -0.0325  1.0000  0.0046  -1.6177   0.0000   0.0000   0.0000   0.1174
 -15.900  -0.3175   0.18094   0.17937  -0.0329  1.0000  0.0046  -1.6230   0.0000   0.0000   0.0000   0.1158
 -15.800  -0.3154   0.17969   0.17812  -0.0332  1.0000  0.0046  -1.6284   0.0000   0.0000   0.0000   0.1141
 -15.700  -0.3133   0.17843   0.17687  -0.0335  1.0000  0.0046  -1.6340   0.0000   0.0000   0.0000   0.1124
 -15.600  -0.3112   0.17718   0.17563  -0.0337  1.0000  0.0046  -1.6398   0.0000   0.0000   0.0000   0.1108
 -15.500  -0.3092   0.17593   0.17436  -0.0340  1.0000  0.0046  -1.6457   0.0000   0.0000   0.0000   0.1092
 -15.400  -0.3072   0.17468   0.17312  -0.0343  1.0000  0.0046  -1.6518   0.0000   0.0000   0.0000   0.1076
 -15.300  -0.3050   0.17338   0.17183  -0.0347  1.0000  0.0046  -1.6579   0.0000   0.0000   0.0000   0.1056
 -15.200  -0.2986   0.17149   0.16993  -0.0364  0.9998  0.0046  -1.6630   0.0000   0.0000   0.0000   0.0967
 -15.100  -0.2921   0.16958   0.16802  -0.0382  0.9995  0.0046  -1.6682   0.0000   0.0000   0.0000   0.0874
 -15.000  -0.2856   0.16768   0.16611  -0.0400  0.9992  0.0046  -1.6738   0.0000   0.0000   0.0000   0.0775
 -14.900  -0.2791   0.16576   0.16419  -0.0418  0.9989  0.0046  -1.6796   0.0000   0.0000   0.0000   0.0671
 -14.800  -0.2728   0.16386   0.16229  -0.0435  0.9986  0.0046  -1.6857   0.0000   0.0000   0.0000   0.0566
 -13.400  -0.4861   0.08193   0.08020  -0.0816  0.9960  0.0074  -8.0405   0.0000   0.0000   0.0000   0.0553
 -13.300  -0.4262   0.09060   0.08896  -0.0769  0.9959  0.0076  -7.0075   0.0000   0.0000   0.0000   0.0408
 -13.200  -0.4063   0.09197   0.09034  -0.0769  0.9954  0.0076  -6.6890   0.0000   0.0000   0.0000   0.0314
 -13.100  -0.3917   0.09240   0.09078  -0.0774  0.9946  0.0077  -6.4656   0.0000   0.0000   0.0000   0.0227
 -13.000  -0.3696   0.09415   0.09255  -0.0773  0.9938  0.0077  -6.1089   0.0000   0.0000   0.0000   0.0104
 -12.900  -0.3336   0.09831   0.09676  -0.0762  0.9928  0.0079  -5.4913   0.0000   0.0000   0.0000  -0.0110
 -12.800  -0.3139   0.09932   0.09777  -0.0769  0.9918  0.0080  -5.1851   0.0000   0.0000   0.0000  -0.0287
 -12.700  -0.2979   0.09960   0.09806  -0.0779  0.9909  0.0081  -4.9526   0.0000   0.0000   0.0000  -0.0466
 -12.600  -0.2867   0.09965   0.09811  -0.0784  0.9889  0.0081  -4.7749   0.0000   0.0000   0.0000  -0.0590
 -12.500  -0.2762   0.09961   0.09807  -0.0789  0.9861  0.0082  -4.6077   0.0000   0.0000   0.0000  -0.0718
 -12.200  -0.1762   0.10616   0.10452  -0.0861  0.9521  0.0087  -3.1107   0.0000   0.0000   0.0000  -0.2904
 -12.100  -0.5523   0.01995   0.01663  -0.1649  0.9428  0.0071  -10.1805   0.0000   0.0000   0.0000  -0.0706
 -12.000  -0.5268   0.01876   0.01532  -0.1704  0.9392  0.0071  -9.9571   0.0000   0.0000   0.0000  -0.0962
 -11.900  -0.5024   0.01785   0.01430  -0.1749  0.9354  0.0071  -9.7340   0.0000   0.0000   0.0000  -0.1215
 -11.800  -0.4803   0.01711   0.01345  -0.1785  0.9302  0.0071  -9.5238   0.0000   0.0000   0.0000  -0.1457
 -11.700  -0.4609   0.01650   0.01274  -0.1813  0.9228  0.0071  -9.3299   0.0000   0.0000   0.0000  -0.1682
 -11.600  -0.4426   0.01599   0.01209  -0.1837  0.9152  0.0071  -9.1440   0.0000   0.0000   0.0000  -0.1905
 -11.500  -0.4286   0.01556   0.01158  -0.1851  0.9058  0.0071  -8.9840   0.0000   0.0000   0.0000  -0.2078
 -11.400  -0.4149   0.01520   0.01111  -0.1863  0.8964  0.0071  -8.8266   0.0000   0.0000   0.0000  -0.2253
 -11.300  -0.4031   0.01487   0.01070  -0.1870  0.8884  0.0071  -8.6809   0.0000   0.0000   0.0000  -0.2407
 -11.200  -0.3916   0.01458   0.01032  -0.1876  0.8800  0.0071  -8.5376   0.0000   0.0000   0.0000  -0.2562
 -11.100  -0.3805   0.01430   0.00997  -0.1881  0.8726  0.0070  -8.3973   0.0000   0.0000   0.0000  -0.2717
 -11.000  -0.3695   0.01404   0.00963  -0.1885  0.8647  0.0070  -8.2578   0.0000   0.0000   0.0000  -0.2879
 -10.900  -0.3589   0.01381   0.00932  -0.1887  0.8560  0.0070  -8.1208   0.0000   0.0000   0.0000  -0.3041
 -10.800  -0.3481   0.01359   0.00902  -0.1891  0.8492  0.0070  -7.9828   0.0000   0.0000   0.0000  -0.3219
 -10.700  -0.3371   0.01337   0.00874  -0.1893  0.8425  0.0070  -7.8445   0.0000   0.0000   0.0000  -0.3409
 -10.600  -0.3265   0.01318   0.00847  -0.1895  0.8354  0.0070  -7.7088   0.0000   0.0000   0.0000  -0.3603
 -10.500  -0.3158   0.01299   0.00822  -0.1897  0.8287  0.0070  -7.5739   0.0000   0.0000   0.0000  -0.3809
 -10.400  -0.3044   0.01279   0.00797  -0.1900  0.8238  0.0070  -7.4344   0.0000   0.0000   0.0000  -0.4052
 -10.300  -0.2932   0.01261   0.00773  -0.1903  0.8176  0.0070  -7.2970   0.0000   0.0000   0.0000  -0.4307
 -10.200  -0.2823   0.01245   0.00751  -0.1905  0.8108  0.0070  -7.1623   0.0000   0.0000   0.0000  -0.4570
 -10.100  -0.2717   0.01230   0.00729  -0.1906  0.8038  0.0070  -7.0299   0.0000   0.0000   0.0000  -0.4845
 -10.000  -0.2602   0.01213   0.00708  -0.1909  0.7994  0.0069  -6.8926   0.0000   0.0000   0.0000  -0.5177
  -9.900  -0.2487   0.01198   0.00688  -0.1911  0.7944  0.0069  -6.7569   0.0000   0.0000   0.0000  -0.5534
  -9.800  -0.2375   0.01183   0.00668  -0.1913  0.7891  0.0069  -6.6395   0.0000   0.0000   0.0000  -0.5917
  -9.700  -0.2265   0.01170   0.00650  -0.1914  0.7835  0.0069  -6.5263   0.0000   0.0000   0.0000  -0.6327
  -9.600  -0.2154   0.01156   0.00632  -0.1916  0.7779  0.0069  -6.4131   0.0000   0.0000   0.0000  -0.6785
  -9.500  -0.2033   0.01139   0.00613  -0.1920  0.7754  0.0069  -6.2958   0.0000   0.0000   0.0000  -0.7345
  -9.400  -0.1913   0.01123   0.00596  -0.1923  0.7723  0.0069  -6.1792   0.0000   0.0000   0.0000  -0.7974
  -9.300  -0.1795   0.01108   0.00577  -0.1926  0.7680  0.0069  -6.0649   0.0000   0.0000   0.0000  -0.8673
  -9.200  -0.1678   0.01095   0.00561  -0.1928  0.7637  0.0069  -5.9501   0.0000   0.0000   0.0000  -0.9461
  -9.100  -0.1562   0.01084   0.00546  -0.1930  0.7592  0.0068  -5.8373   0.0000   0.0000   0.0000  -1.0351
  -9.000  -0.1449   0.01074   0.00532  -0.1932  0.7546  0.0068  -5.7262   0.0000   0.0000   0.0000  -1.1363
  -8.900  -0.1335   0.01064   0.00519  -0.1933  0.7499  0.0068  -5.6160   0.0000   0.0000   0.0000  -1.2547
  -8.800  -0.1215   0.01053   0.00505  -0.1936  0.7476  0.0068  -5.5036   0.0000   0.0000   0.0000  -1.4050
  -8.700  -0.1094   0.01042   0.00492  -0.1939  0.7452  0.0068  -5.3923   0.0000   0.0000   0.0000  -1.5879
  -8.600  -0.0975   0.01032   0.00479  -0.1941  0.7428  0.0069  -5.2819   0.0000   0.0000   0.0000  -1.8153
  -8.500  -0.0855   0.01022   0.00466  -0.1944  0.7404  0.0069  -5.1725   0.0000   0.0000   0.0000  -2.1059
  -8.400  -0.0735   0.01013   0.00454  -0.1946  0.7381  0.0069  -5.0640   0.0000   0.0000   0.0000  -2.4905
  -8.300  -0.0617   0.01004   0.00442  -0.1948  0.7357  0.0069  -4.9566   0.0000   0.0000   0.0000  -3.0209
  -8.200  -0.0499   0.00996   0.00431  -0.1950  0.7325  0.0069  -4.8507   0.0000   0.0000   0.0000  -3.7914
  -8.100  -0.0383   0.00989   0.00420  -0.1951  0.7286  0.0070  -4.7463   0.0000   0.0000   0.0000  -5.0115
  -8.000  -0.0269   0.00983   0.00410  -0.1952  0.7239  0.0070  -4.6432   0.0000   0.0000   0.0000  -7.2637
  -7.900  -0.0150   0.00975   0.00399  -0.1954  0.7204  0.0070  -4.5392   0.0000   0.0000   0.0000  -13.1867
  -7.800  -0.0029   0.00967   0.00389  -0.1957  0.7182  0.0070  -4.4346   0.0000   0.0000   0.0000  -70.1970
  -7.700   0.0092   0.00959   0.00380  -0.1959  0.7151  0.0070  -4.3313   0.0000   0.0000   0.0000  22.2337
  -7.600   0.0211   0.00952   0.00371  -0.1961  0.7104  0.0070  -4.2295   0.0000   0.0000   0.0000   9.8340
  -7.500   0.0327   0.00947   0.00362  -0.1962  0.7039  0.0070  -4.1297   0.0000   0.0000   0.0000   6.4313
  -7.400   0.0440   0.00944   0.00354  -0.1963  0.6964  0.0070  -4.0324   0.0000   0.0000   0.0000   4.8507
  -7.300   0.0553   0.00940   0.00346  -0.1963  0.6902  0.0070  -3.9352   0.0000   0.0000   0.0000   3.9038
  -7.200   0.0672   0.00934   0.00338  -0.1965  0.6864  0.0070  -3.8509   0.0000   0.0000   0.0000   3.2586
  -7.100   0.0791   0.00928   0.00331  -0.1967  0.6829  0.0070  -3.7759   0.0000   0.0000   0.0000   2.8076
  -7.000   0.0910   0.00923   0.00323  -0.1969  0.6799  0.0070  -3.7010   0.0000   0.0000   0.0000   2.4742
  -6.900   0.1030   0.00917   0.00315  -0.1971  0.6777  0.0070  -3.6258   0.0000   0.0000   0.0000   2.2165
  -6.800   0.1149   0.00913   0.00308  -0.1972  0.6748  0.0070  -3.5507   0.0000   0.0000   0.0000   2.0144
  -6.700   0.1266   0.00909   0.00302  -0.1974  0.6718  0.0070  -3.4752   0.0000   0.0000   0.0000   1.8508
  -6.600   0.1383   0.00905   0.00296  -0.1975  0.6684  0.0070  -3.3985   0.0000   0.0000   0.0000   1.7156
  -6.500   0.1500   0.00902   0.00292  -0.1976  0.6649  0.0070  -3.3155   0.0000   0.0000   0.0000   1.6021
  -6.400   0.1615   0.00902   0.00292  -0.1977  0.6616  0.0070  -3.2191   0.0000   0.0000   0.0000   1.5058
  -6.300   0.1725   0.00908   0.00303  -0.1977  0.6599  0.0070  -3.0905   0.0000   0.0000   0.0000   1.4248
  -6.200   0.1836   0.00913   0.00314  -0.1976  0.6587  0.0070  -2.9754   0.0000   0.0000   0.0000   1.3530
  -6.100   0.1952   0.00913   0.00317  -0.1977  0.6572  0.0070  -2.8873   0.0000   0.0000   0.0000   1.2874
  -6.000   0.2070   0.00911   0.00316  -0.1978  0.6554  0.0070  -2.8099   0.0000   0.0000   0.0000   1.2285
  -5.900   0.2188   0.00908   0.00313  -0.1980  0.6529  0.0070  -2.7372   0.0000   0.0000   0.0000   1.1758
  -5.800   0.2306   0.00906   0.00310  -0.1981  0.6496  0.0070  -2.6666   0.0000   0.0000   0.0000   1.1288
  -5.700   0.2422   0.00904   0.00307  -0.1982  0.6449  0.0070  -2.5977   0.0000   0.0000   0.0000   1.0866
  -5.600   0.2536   0.00904   0.00304  -0.1982  0.6389  0.0071  -2.5307   0.0000   0.0000   0.0000   1.0489
  -5.500   0.2647   0.00905   0.00301  -0.1982  0.6323  0.0071  -2.4653   0.0000   0.0000   0.0000   1.0149
  -5.400   0.2762   0.00904   0.00298  -0.1983  0.6275  0.0071  -2.3999   0.0000   0.0000   0.0000   0.9831
  -5.300   0.2879   0.00903   0.00295  -0.1984  0.6239  0.0071  -2.3348   0.0000   0.0000   0.0000   0.9534
  -5.200   0.2995   0.00902   0.00292  -0.1985  0.6200  0.0071  -2.2706   0.0000   0.0000   0.0000   0.9261
  -5.100   0.3111   0.00901   0.00290  -0.1986  0.6160  0.0072  -2.2071   0.0000   0.0000   0.0000   0.9010
  -5.000   0.3225   0.00901   0.00287  -0.1987  0.6116  0.0072  -2.1442   0.0000   0.0000   0.0000   0.8778
  -4.900   0.3277   0.00965   0.00352  -0.1971  0.6072  0.0094  -1.9625   0.0000   0.0000   0.0000   0.8629
  -4.600   0.3684   0.00911   0.00252  -0.1985  0.5958  0.0093  -2.1645   0.0000   0.0000   0.0000   0.7981
  -4.500   0.3753   0.00948   0.00316  -0.1978  0.5940  0.0091  -1.7886   0.0000   0.0000   0.0000   0.7859
  -4.400   0.3902   0.00914   0.00295  -0.1988  0.5911  0.0094  -1.7364   0.0000   0.0000   0.0000   0.7678
  -4.300   0.4124   0.00826   0.00192  -0.2013  0.5862  0.0143  -2.0492   0.0000   0.0000   0.0000   0.7460
  -4.200   0.4229   0.00835   0.00202  -0.2012  0.5783  0.0153  -1.9396   0.0000   0.0000   0.0000   0.7332
  -4.100   0.4328   0.00848   0.00215  -0.2009  0.5684  0.0159  -1.8334   0.0000   0.0000   0.0000   0.7213
  -4.000   0.4431   0.00857   0.00228  -0.2008  0.5619  0.0164  -1.7327   0.0000   0.0000   0.0000   0.7098
  -3.900   0.4535   0.00866   0.00242  -0.2006  0.5572  0.0168  -1.6369   0.0000   0.0000   0.0000   0.6987
  -3.600   0.4869   0.00875   0.00251  -0.2007  0.5423  0.0194  -1.4417   0.0000   0.0000   0.0000   0.6675
  -3.500   0.4989   0.00873   0.00244  -0.2009  0.5366  0.0196  -1.3967   0.0000   0.0000   0.0000   0.6577
  -3.400   0.5110   0.00869   0.00238  -0.2011  0.5323  0.0199  -1.3510   0.0000   0.0000   0.0000   0.6483
  -3.300   0.5233   0.00864   0.00231  -0.2014  0.5305  0.0200  -1.3048   0.0000   0.0000   0.0000   0.6392
  -3.200   0.5355   0.00861   0.00226  -0.2016  0.5282  0.0202  -1.2589   0.0000   0.0000   0.0000   0.6305
  -3.100   0.5476   0.00857   0.00221  -0.2018  0.5248  0.0203  -1.2133   0.0000   0.0000   0.0000   0.6223
  -3.000   0.5594   0.00857   0.00217  -0.2019  0.5183  0.0203  -1.1685   0.0000   0.0000   0.0000   0.6145
  -2.900   0.5706   0.00861   0.00215  -0.2020  0.5072  0.0204  -1.1252   0.0000   0.0000   0.0000   0.6073
  -2.800   0.5818   0.00865   0.00213  -0.2020  0.4976  0.0204  -1.0820   0.0000   0.0000   0.0000   0.6003
  -2.700   0.5935   0.00865   0.00209  -0.2021  0.4921  0.0204  -1.0382   0.0000   0.0000   0.0000   0.5934
  -2.600   0.6051   0.00866   0.00207  -0.2022  0.4868  0.0203  -0.9946   0.0000   0.0000   0.0000   0.5868
  -2.500   0.6166   0.00868   0.00204  -0.2023  0.4814  0.0202  -0.9515   0.0000   0.0000   0.0000   0.5805
  -2.400   0.6280   0.00871   0.00203  -0.2023  0.4755  0.0199  -0.9084   0.0000   0.0000   0.0000   0.5744
  -2.300   0.6395   0.00873   0.00200  -0.2024  0.4698  0.0194  -0.8994   0.0000   0.0000   0.0000   0.5685
  -2.200   0.6514   0.00873   0.00197  -0.2025  0.4664  0.0194  -0.9081   0.0000   0.0000   0.0000   0.5627
  -2.100   0.6633   0.00872   0.00195  -0.2027  0.4646  0.0194  -0.9168   0.0000   0.0000   0.0000   0.5572
  -2.000   0.6751   0.00871   0.00192  -0.2028  0.4620  0.0195  -0.9256   0.0000   0.0000   0.0000   0.5518
  -1.900   0.6869   0.00871   0.00190  -0.2029  0.4578  0.0197  -0.9343   0.0000   0.0000   0.0000   0.5466
  -1.800   0.6985   0.00872   0.00189  -0.2030  0.4529  0.0201  -0.9429   0.0000   0.0000   0.0000   0.5417
  -1.700   0.7083   0.00888   0.00193  -0.2028  0.4331  0.0205  -0.9506   0.0000   0.0000   0.0000   0.5371
  -1.600   0.7197   0.00891   0.00193  -0.2029  0.4280  0.0209  -0.9602   0.0000   0.0000   0.0000   0.5325
  -1.500   0.7310   0.00895   0.00193  -0.2029  0.4225  0.0212  -0.9701   0.0000   0.0000   0.0000   0.5280
  -1.400   0.7419   0.00901   0.00194  -0.2029  0.4153  0.0215  -0.9799   0.0000   0.0000   0.0000   0.5237
  -1.300   0.7529   0.00908   0.00195  -0.2028  0.4066  0.0216  -0.9896   0.0000   0.0000   0.0000   0.5195
  -1.200   0.7644   0.00910   0.00195  -0.2029  0.4012  0.0215  -0.9997   0.0000   0.0000   0.0000   0.5154
  -1.100   0.7760   0.00912   0.00195  -0.2030  0.3976  0.0214  -1.0100   0.0000   0.0000   0.0000   0.5114
  -0.900   0.7963   0.00937   0.00206  -0.2027  0.3660  0.0212  -1.0287   0.0000   0.0000   0.0000   0.5040
  -0.800   0.8070   0.00946   0.00209  -0.2026  0.3570  0.0211  -1.0384   0.0000   0.0000   0.0000   0.5004
  -0.700   0.8174   0.00957   0.00213  -0.2025  0.3477  0.0210  -1.0480   0.0000   0.0000   0.0000   0.4969
  -0.600   0.8284   0.00963   0.00216  -0.2025  0.3392  0.0210  -1.0579   0.0000   0.0000   0.0000   0.4934
  -0.500   0.8400   0.00964   0.00217  -0.2025  0.3371  0.0209  -1.0682   0.0000   0.0000   0.0000   0.4900
  -0.400   0.8514   0.00967   0.00218  -0.2026  0.3345  0.0208  -1.0785   0.0000   0.0000   0.0000   0.4867
  -0.300   0.8627   0.00970   0.00220  -0.2026  0.3306  0.0208  -1.0888   0.0000   0.0000   0.0000   0.4834
  -0.200   0.8738   0.00975   0.00224  -0.2026  0.3235  0.0207  -1.0989   0.0000   0.0000   0.0000   0.4803
  -0.100   0.8831   0.00994   0.00233  -0.2023  0.3056  0.0207  -1.1083   0.0000   0.0000   0.0000   0.4773
   0.000   0.8936   0.01005   0.00238  -0.2022  0.2971  0.0207  -1.1183   0.0000   0.0000   0.0000   0.4744


