xflr5 v6.59

 Calculated polar for: WORTMANN FX 63-137 AIRFOIL

 1 1 Reynolds number fixed          Mach number fixed         

 xtrf =   1.000 (top)        1.000 (bottom)
 Mach =   0.000     Re =     1.300 e 6     Ncrit =   9.000

  alpha     CL        CD       CDp       Cm    Top Xtr Bot Xtr   Cpmin    Chinge    XCp    
 ------- -------- --------- --------- -------- ------- ------- -------- --------- ---------
 -19.200  -0.3997   0.22143   0.21971  -0.0199  1.0000  0.0046  -1.5154   0.0000   0.0000   0.0000   0.1696
 -19.100  -0.3969   0.22030   0.21858  -0.0204  1.0000  0.0046  -1.5174   0.0000   0.0000   0.0000   0.1680
 -19.000  -0.3941   0.21913   0.21741  -0.0208  1.0000  0.0046  -1.5197   0.0000   0.0000   0.0000   0.1664
 -18.900  -0.3914   0.21792   0.21620  -0.0213  1.0000  0.0046  -1.5221   0.0000   0.0000   0.0000   0.1648
 -18.800  -0.3887   0.21670   0.21498  -0.0218  1.0000  0.0046  -1.5246   0.0000   0.0000   0.0000   0.1633
 -18.700  -0.3860   0.21547   0.21376  -0.0223  1.0000  0.0046  -1.5271   0.0000   0.0000   0.0000   0.1616
 -18.600  -0.3833   0.21425   0.21254  -0.0227  1.0000  0.0046  -1.5298   0.0000   0.0000   0.0000   0.1600
 -18.500  -0.3806   0.21303   0.21132  -0.0232  1.0000  0.0046  -1.5325   0.0000   0.0000   0.0000   0.1584
 -18.400  -0.3779   0.21180   0.21010  -0.0236  1.0000  0.0046  -1.5354   0.0000   0.0000   0.0000   0.1568
 -18.300  -0.3753   0.21057   0.20887  -0.0241  1.0000  0.0046  -1.5383   0.0000   0.0000   0.0000   0.1552
 -18.200  -0.3727   0.20934   0.20764  -0.0245  1.0000  0.0046  -1.5412   0.0000   0.0000   0.0000   0.1535
 -18.100  -0.3700   0.20811   0.20642  -0.0250  1.0000  0.0046  -1.5441   0.0000   0.0000   0.0000   0.1519
 -18.000  -0.3674   0.20688   0.20519  -0.0254  1.0000  0.0046  -1.5471   0.0000   0.0000   0.0000   0.1502
 -17.900  -0.3648   0.20565   0.20396  -0.0258  1.0000  0.0046  -1.5502   0.0000   0.0000   0.0000   0.1485
 -17.800  -0.3622   0.20442   0.20273  -0.0262  1.0000  0.0046  -1.5533   0.0000   0.0000   0.0000   0.1468
 -17.700  -0.3597   0.20318   0.20150  -0.0267  1.0000  0.0046  -1.5566   0.0000   0.0000   0.0000   0.1452
 -17.600  -0.3571   0.20194   0.20026  -0.0271  1.0000  0.0046  -1.5599   0.0000   0.0000   0.0000   0.1434
 -17.500  -0.3546   0.20070   0.19903  -0.0275  1.0000  0.0046  -1.5633   0.0000   0.0000   0.0000   0.1417
 -17.400  -0.3520   0.19946   0.19779  -0.0279  1.0000  0.0046  -1.5669   0.0000   0.0000   0.0000   0.1400
 -17.300  -0.3495   0.19823   0.19655  -0.0283  1.0000  0.0046  -1.5705   0.0000   0.0000   0.0000   0.1383
 -17.200  -0.3471   0.19699   0.19532  -0.0287  1.0000  0.0046  -1.5743   0.0000   0.0000   0.0000   0.1366
 -17.100  -0.3446   0.19574   0.19408  -0.0291  1.0000  0.0046  -1.5781   0.0000   0.0000   0.0000   0.1349
 -17.000  -0.3422   0.19450   0.19284  -0.0294  1.0000  0.0046  -1.5821   0.0000   0.0000   0.0000   0.1332
 -16.900  -0.3398   0.19326   0.19160  -0.0298  1.0000  0.0046  -1.5861   0.0000   0.0000   0.0000   0.1315
 -16.800  -0.3374   0.19201   0.19035  -0.0302  1.0000  0.0046  -1.5903   0.0000   0.0000   0.0000   0.1297
 -16.700  -0.3350   0.19077   0.18911  -0.0305  1.0000  0.0046  -1.5946   0.0000   0.0000   0.0000   0.1280
 -16.600  -0.3327   0.18952   0.18787  -0.0309  1.0000  0.0046  -1.5990   0.0000   0.0000   0.0000   0.1263
 -16.500  -0.3304   0.18828   0.18663  -0.0312  1.0000  0.0046  -1.6035   0.0000   0.0000   0.0000   0.1246
 -16.400  -0.3281   0.18703   0.18539  -0.0316  1.0000  0.0046  -1.6082   0.0000   0.0000   0.0000   0.1229
 -16.300  -0.3258   0.18578   0.18414  -0.0319  1.0000  0.0046  -1.6130   0.0000   0.0000   0.0000   0.1213
 -16.200  -0.3236   0.18453   0.18290  -0.0322  1.0000  0.0046  -1.6179   0.0000   0.0000   0.0000   0.1196
 -16.100  -0.3214   0.18329   0.18165  -0.0325  1.0000  0.0046  -1.6231   0.0000   0.0000   0.0000   0.1179
 -16.000  -0.3192   0.18204   0.18041  -0.0328  1.0000  0.0046  -1.6284   0.0000   0.0000   0.0000   0.1162
 -15.900  -0.3171   0.18078   0.17916  -0.0332  1.0000  0.0046  -1.6340   0.0000   0.0000   0.0000   0.1146
 -15.800  -0.3149   0.17953   0.17791  -0.0335  1.0000  0.0046  -1.6396   0.0000   0.0000   0.0000   0.1129
 -15.700  -0.3128   0.17828   0.17666  -0.0337  1.0000  0.0046  -1.6455   0.0000   0.0000   0.0000   0.1113
 -15.600  -0.3108   0.17703   0.17541  -0.0340  1.0000  0.0046  -1.6514   0.0000   0.0000   0.0000   0.1096
 -15.500  -0.3192   0.17217   0.17057  -0.0348  1.0000  0.0053  -1.9992   0.0000   0.0000   0.0000   0.1103
 -15.400  -0.3171   0.17103   0.16944  -0.0351  1.0000  0.0053  -1.9915   0.0000   0.0000   0.0000   0.1088
 -15.300  -0.3150   0.16990   0.16831  -0.0354  1.0000  0.0054  -1.9833   0.0000   0.0000   0.0000   0.1072
 -15.200  -0.3130   0.16878   0.16719  -0.0356  1.0000  0.0054  -1.9751   0.0000   0.0000   0.0000   0.1058
 -15.100  -0.3110   0.16764   0.16606  -0.0359  1.0000  0.0055  -1.9692   0.0000   0.0000   0.0000   0.1043
 -15.000  -0.3091   0.16649   0.16490  -0.0361  1.0000  0.0055  -1.9651   0.0000   0.0000   0.0000   0.1029
 -13.300  -0.5982   0.05864   0.05661  -0.0987  0.9936  0.0073  -9.9811   0.0000   0.0000   0.0000   0.0612
 -13.200  -0.6210   0.05048   0.04830  -0.1074  0.9917  0.0073  -10.4264   0.0000   0.0000   0.0000   0.0540
 -13.100  -0.6305   0.04505   0.04275  -0.1143  0.9901  0.0073  -10.6383   0.0000   0.0000   0.0000   0.0460
 -13.000  -0.6371   0.04139   0.03901  -0.1187  0.9863  0.0072  -10.7513   0.0000   0.0000   0.0000   0.0415
 -12.900  -0.6384   0.03779   0.03531  -0.1242  0.9839  0.0072  -10.8191   0.0000   0.0000   0.0000   0.0335
 -12.800  -0.6420   0.03534   0.03279  -0.1271  0.9786  0.0072  -10.8584   0.0000   0.0000   0.0000   0.0306
 -12.700  -0.6405   0.03277   0.03013  -0.1312  0.9745  0.0072  -10.8618   0.0000   0.0000   0.0000   0.0240
 -12.600  -0.6405   0.03071   0.02800  -0.1338  0.9669  0.0072  -10.8540   0.0000   0.0000   0.0000   0.0203
 -12.500  -0.6326   0.02843   0.02562  -0.1384  0.9629  0.0072  -10.7954   0.0000   0.0000   0.0000   0.0105
 -12.400  -0.6246   0.02651   0.02360  -0.1423  0.9571  0.0072  -10.7227   0.0000   0.0000   0.0000   0.0014
 -12.300  -0.6104   0.02459   0.02157  -0.1474  0.9529  0.0072  -10.6038   0.0000   0.0000   0.0000  -0.0123
 -12.200  -0.5913   0.02279   0.01965  -0.1531  0.9502  0.0072  -10.4445   0.0000   0.0000   0.0000  -0.0301
 -12.100  -0.5695   0.02120   0.01792  -0.1589  0.9477  0.0072  -10.2600   0.0000   0.0000   0.0000  -0.0506
 -12.000  -0.5482   0.01988   0.01649  -0.1640  0.9433  0.0072  -10.0705   0.0000   0.0000   0.0000  -0.0710
 -11.900  -0.5249   0.01881   0.01530  -0.1687  0.9398  0.0072  -9.8605   0.0000   0.0000   0.0000  -0.0939
 -11.800  -0.5012   0.01794   0.01432  -0.1729  0.9368  0.0072  -9.6418   0.0000   0.0000   0.0000  -0.1182
 -11.700  -0.4782   0.01720   0.01347  -0.1767  0.9333  0.0072  -9.4261   0.0000   0.0000   0.0000  -0.1434
 -11.600  -0.4586   0.01659   0.01275  -0.1795  0.9273  0.0072  -9.2330   0.0000   0.0000   0.0000  -0.1660
 -11.500  -0.4394   0.01605   0.01211  -0.1821  0.9205  0.0072  -9.0404   0.0000   0.0000   0.0000  -0.1898
 -11.400  -0.4221   0.01559   0.01155  -0.1842  0.9133  0.0072  -8.8601   0.0000   0.0000   0.0000  -0.2123
 -11.300  -0.4079   0.01521   0.01108  -0.1855  0.9045  0.0072  -8.6997   0.0000   0.0000   0.0000  -0.2312
 -11.200  -0.3940   0.01487   0.01064  -0.1867  0.8962  0.0072  -8.5414   0.0000   0.0000   0.0000  -0.2507
 -11.100  -0.3819   0.01457   0.01026  -0.1874  0.8889  0.0072  -8.3953   0.0000   0.0000   0.0000  -0.2679
 -11.000  -0.3701   0.01429   0.00991  -0.1880  0.8813  0.0072  -8.2508   0.0000   0.0000   0.0000  -0.2857
 -10.900  -0.3587   0.01404   0.00957  -0.1884  0.8743  0.0072  -8.1093   0.0000   0.0000   0.0000  -0.3037
 -10.800  -0.3475   0.01380   0.00926  -0.1888  0.8675  0.0072  -7.9697   0.0000   0.0000   0.0000  -0.3222
 -10.700  -0.3365   0.01358   0.00897  -0.1892  0.8595  0.0071  -7.8314   0.0000   0.0000   0.0000  -0.3415
 -10.600  -0.3256   0.01338   0.00869  -0.1894  0.8522  0.0071  -7.6949   0.0000   0.0000   0.0000  -0.3615
 -10.500  -0.3144   0.01317   0.00843  -0.1897  0.8463  0.0071  -7.5566   0.0000   0.0000   0.0000  -0.3838
 -10.400  -0.3034   0.01298   0.00817  -0.1900  0.8398  0.0071  -7.4200   0.0000   0.0000   0.0000  -0.4072
 -10.300  -0.2927   0.01282   0.00793  -0.1901  0.8330  0.0071  -7.2862   0.0000   0.0000   0.0000  -0.4312
 -10.200  -0.2816   0.01264   0.00770  -0.1904  0.8275  0.0071  -7.1505   0.0000   0.0000   0.0000  -0.4583
 -10.100  -0.2702   0.01246   0.00748  -0.1906  0.8224  0.0071  -7.0134   0.0000   0.0000   0.0000  -0.4889
 -10.000  -0.2589   0.01230   0.00726  -0.1909  0.8163  0.0071  -6.8782   0.0000   0.0000   0.0000  -0.5214
  -9.900  -0.2480   0.01215   0.00706  -0.1910  0.8096  0.0071  -6.7525   0.0000   0.0000   0.0000  -0.5554
  -9.800  -0.2372   0.01201   0.00686  -0.1911  0.8033  0.0071  -6.6397   0.0000   0.0000   0.0000  -0.5922
  -9.700  -0.2256   0.01185   0.00667  -0.1914  0.7988  0.0071  -6.5236   0.0000   0.0000   0.0000  -0.6362
  -9.600  -0.2141   0.01170   0.00648  -0.1917  0.7938  0.0070  -6.4086   0.0000   0.0000   0.0000  -0.6842
  -9.500  -0.2028   0.01155   0.00630  -0.1919  0.7886  0.0070  -6.2948   0.0000   0.0000   0.0000  -0.7366
  -9.400  -0.1917   0.01142   0.00613  -0.1920  0.7831  0.0070  -6.1822   0.0000   0.0000   0.0000  -0.7937
  -9.300  -0.1806   0.01130   0.00594  -0.1922  0.7773  0.0070  -6.0710   0.0000   0.0000   0.0000  -0.8584
  -9.200  -0.1686   0.01115   0.00578  -0.1925  0.7747  0.0070  -5.9550   0.0000   0.0000   0.0000  -0.9384
  -9.100  -0.1567   0.01103   0.00563  -0.1928  0.7715  0.0070  -5.8404   0.0000   0.0000   0.0000  -1.0298
  -9.000  -0.1448   0.01090   0.00548  -0.1930  0.7679  0.0070  -5.7272   0.0000   0.0000   0.0000  -1.1354
  -8.900  -0.1331   0.01079   0.00534  -0.1932  0.7640  0.0070  -5.6154   0.0000   0.0000   0.0000  -1.2585
  -8.800  -0.1215   0.01069   0.00520  -0.1934  0.7598  0.0070  -5.5052   0.0000   0.0000   0.0000  -1.4034
  -8.700  -0.1100   0.01060   0.00506  -0.1936  0.7555  0.0070  -5.3965   0.0000   0.0000   0.0000  -1.5761
  -8.600  -0.0986   0.01052   0.00493  -0.1937  0.7511  0.0071  -5.2890   0.0000   0.0000   0.0000  -1.7874
  -8.500  -0.0867   0.01042   0.00480  -0.1939  0.7484  0.0071  -5.1799   0.0000   0.0000   0.0000  -2.0684
  -8.400  -0.0747   0.01032   0.00468  -0.1942  0.7461  0.0071  -5.0710   0.0000   0.0000   0.0000  -2.4439
  -8.300  -0.0627   0.01022   0.00456  -0.1944  0.7438  0.0071  -4.9631   0.0000   0.0000   0.0000  -2.9622
  -8.200  -0.0507   0.01013   0.00444  -0.1947  0.7416  0.0072  -4.8560   0.0000   0.0000   0.0000  -3.7244
  -8.100  -0.0388   0.01005   0.00433  -0.1949  0.7390  0.0072  -4.7501   0.0000   0.0000   0.0000  -4.9486
  -8.000  -0.0270   0.00997   0.00422  -0.1950  0.7358  0.0072  -4.6455   0.0000   0.0000   0.0000  -7.2213
  -7.900  -0.0154   0.00991   0.00412  -0.1952  0.7320  0.0072  -4.5425   0.0000   0.0000   0.0000  -12.8702
  -7.800  -0.0039   0.00985   0.00402  -0.1953  0.7276  0.0072  -4.4410   0.0000   0.0000   0.0000  -51.0848
  -7.700   0.0075   0.00979   0.00392  -0.1954  0.7226  0.0072  -4.3404   0.0000   0.0000   0.0000  27.1373
  -7.600   0.0195   0.00972   0.00383  -0.1956  0.7198  0.0072  -4.2382   0.0000   0.0000   0.0000  10.6016
  -7.500   0.0316   0.00964   0.00374  -0.1958  0.7172  0.0072  -4.1361   0.0000   0.0000   0.0000   6.6356
  -7.400   0.0437   0.00957   0.00365  -0.1961  0.7138  0.0072  -4.0354   0.0000   0.0000   0.0000   4.8782
  -7.300   0.0555   0.00950   0.00357  -0.1962  0.7091  0.0072  -3.9360   0.0000   0.0000   0.0000   3.8895
  -7.200   0.0672   0.00945   0.00349  -0.1964  0.7032  0.0072  -3.8391   0.0000   0.0000   0.0000   3.2595
  -7.100   0.0785   0.00942   0.00341  -0.1964  0.6967  0.0072  -3.7655   0.0000   0.0000   0.0000   2.8246
  -7.000   0.0899   0.00938   0.00334  -0.1965  0.6909  0.0071  -3.6918   0.0000   0.0000   0.0000   2.4989
  -6.900   0.1019   0.00932   0.00325  -0.1967  0.6890  0.0071  -3.6157   0.0000   0.0000   0.0000   2.2342
  -6.800   0.1139   0.00927   0.00318  -0.1969  0.6860  0.0071  -3.5391   0.0000   0.0000   0.0000   2.0270
  -6.700   0.1258   0.00922   0.00312  -0.1971  0.6833  0.0071  -3.4614   0.0000   0.0000   0.0000   1.8594
  -6.600   0.1376   0.00918   0.00306  -0.1972  0.6805  0.0071  -3.3873   0.0000   0.0000   0.0000   1.7214
  -6.500   0.1494   0.00915   0.00301  -0.1974  0.6777  0.0071  -3.3107   0.0000   0.0000   0.0000   1.6059
  -6.400   0.1610   0.00913   0.00298  -0.1975  0.6747  0.0071  -3.2268   0.0000   0.0000   0.0000   1.5081
  -6.300   0.1705   0.00932   0.00330  -0.1971  0.6716  0.0072  -3.0355   0.0000   0.0000   0.0000   1.4348
  -6.200   0.1816   0.00936   0.00334  -0.1970  0.6683  0.0072  -2.9448   0.0000   0.0000   0.0000   1.3619
  -6.100   0.1930   0.00935   0.00331  -0.1971  0.6648  0.0072  -2.8700   0.0000   0.0000   0.0000   1.2958
  -6.000   0.2045   0.00933   0.00329  -0.1972  0.6615  0.0072  -2.7962   0.0000   0.0000   0.0000   1.2369
  -5.900   0.2163   0.00931   0.00327  -0.1973  0.6599  0.0073  -2.7229   0.0000   0.0000   0.0000   1.1833
  -5.800   0.2282   0.00928   0.00324  -0.1974  0.6586  0.0073  -2.6505   0.0000   0.0000   0.0000   1.1349
  -5.700   0.2401   0.00926   0.00321  -0.1976  0.6570  0.0073  -2.5795   0.0000   0.0000   0.0000   1.0915
  -5.600   0.2503   0.00944   0.00318  -0.1972  0.6551  0.0094  -2.5092   0.0000   0.0000   0.0000   1.0551
  -4.800   0.3451   0.00916   0.00260  -0.1982  0.6195  0.0093  -2.2687   0.0000   0.0000   0.0000   0.8349
  -4.700   0.3512   0.00960   0.00337  -0.1973  0.6155  0.0092  -1.8784   0.0000   0.0000   0.0000   0.8219
  -4.600   0.3650   0.00935   0.00317  -0.1980  0.6111  0.0094  -1.8249   0.0000   0.0000   0.0000   0.8020
  -4.500   0.3817   0.00886   0.00270  -0.1995  0.6065  0.0097  -1.8863   0.0000   0.0000   0.0000   0.7814
  -4.400   0.3994   0.00837   0.00196  -0.2009  0.6012  0.0139  -2.1150   0.0000   0.0000   0.0000   0.7613
  -4.300   0.4103   0.00842   0.00204  -0.2008  0.5973  0.0150  -2.0086   0.0000   0.0000   0.0000   0.7474
  -4.200   0.4210   0.00849   0.00217  -0.2007  0.5957  0.0158  -1.8939   0.0000   0.0000   0.0000   0.7342
  -4.100   0.4318   0.00856   0.00231  -0.2006  0.5938  0.0164  -1.7858   0.0000   0.0000   0.0000   0.7217
  -4.000   0.4423   0.00864   0.00247  -0.2005  0.5912  0.0168  -1.6851   0.0000   0.0000   0.0000   0.7099
  -3.900   0.4511   0.00885   0.00280  -0.2000  0.5874  0.0184  -1.5689   0.0000   0.0000   0.0000   0.6996
  -3.800   0.4637   0.00877   0.00266  -0.2003  0.5806  0.0188  -1.5276   0.0000   0.0000   0.0000   0.6880
  -3.700   0.4754   0.00875   0.00257  -0.2005  0.5711  0.0192  -1.4848   0.0000   0.0000   0.0000   0.6773
  -3.600   0.4871   0.00873   0.00250  -0.2007  0.5634  0.0195  -1.4407   0.0000   0.0000   0.0000   0.6672
  -3.500   0.4992   0.00870   0.00243  -0.2009  0.5585  0.0197  -1.3953   0.0000   0.0000   0.0000   0.6574
  -3.400   0.5111   0.00867   0.00237  -0.2011  0.5538  0.0199  -1.3497   0.0000   0.0000   0.0000   0.6480
  -3.300   0.5230   0.00865   0.00232  -0.2012  0.5489  0.0201  -1.3044   0.0000   0.0000   0.0000   0.6391
  -3.200   0.5347   0.00865   0.00227  -0.2013  0.5438  0.0202  -1.2593   0.0000   0.0000   0.0000   0.6306
  -3.100   0.5464   0.00865   0.00223  -0.2015  0.5383  0.0203  -1.2145   0.0000   0.0000   0.0000   0.6225
  -3.000   0.5582   0.00864   0.00218  -0.2016  0.5332  0.0204  -1.1696   0.0000   0.0000   0.0000   0.6147
  -2.900   0.5704   0.00861   0.00213  -0.2018  0.5311  0.0205  -1.1244   0.0000   0.0000   0.0000   0.6071
  -2.800   0.5825   0.00858   0.00209  -0.2020  0.5290  0.0205  -1.0794   0.0000   0.0000   0.0000   0.5999
  -2.700   0.5945   0.00856   0.00205  -0.2022  0.5260  0.0205  -1.0349   0.0000   0.0000   0.0000   0.5929
  -2.600   0.6063   0.00855   0.00202  -0.2023  0.5209  0.0204  -0.9909   0.0000   0.0000   0.0000   0.5863
  -2.500   0.6177   0.00858   0.00200  -0.2024  0.5120  0.0204  -0.9480   0.0000   0.0000   0.0000   0.5800
  -2.400   0.6284   0.00865   0.00200  -0.2023  0.4998  0.0201  -0.9063   0.0000   0.0000   0.0000   0.5741
  -2.300   0.6400   0.00867   0.00197  -0.2024  0.4945  0.0195  -0.8993   0.0000   0.0000   0.0000   0.5682
  -2.200   0.6516   0.00868   0.00195  -0.2025  0.4893  0.0196  -0.9079   0.0000   0.0000   0.0000   0.5625
  -2.100   0.6630   0.00871   0.00193  -0.2025  0.4841  0.0196  -0.9164   0.0000   0.0000   0.0000   0.5570
  -2.000   0.6744   0.00874   0.00192  -0.2026  0.4786  0.0199  -0.9248   0.0000   0.0000   0.0000   0.5518
  -1.900   0.6857   0.00877   0.00191  -0.2026  0.4726  0.0203  -0.9333   0.0000   0.0000   0.0000   0.5467
  -1.800   0.6972   0.00879   0.00189  -0.2027  0.4672  0.0207  -0.9418   0.0000   0.0000   0.0000   0.5417
  -1.700   0.7091   0.00879   0.00187  -0.2028  0.4654  0.0212  -0.9506   0.0000   0.0000   0.0000   0.5369
  -1.600   0.7209   0.00878   0.00186  -0.2030  0.4631  0.0216  -0.9605   0.0000   0.0000   0.0000   0.5322
  -1.500   0.7326   0.00879   0.00185  -0.2031  0.4596  0.0218  -0.9707   0.0000   0.0000   0.0000   0.5276
  -1.300   0.7538   0.00897   0.00190  -0.2029  0.4344  0.0219  -0.9899   0.0000   0.0000   0.0000   0.5193
  -1.200   0.7649   0.00903   0.00191  -0.2029  0.4266  0.0218  -0.9997   0.0000   0.0000   0.0000   0.5152
  -1.100   0.7757   0.00910   0.00193  -0.2028  0.4184  0.0217  -1.0094   0.0000   0.0000   0.0000   0.5113
  -1.000   0.7864   0.00919   0.00196  -0.2028  0.4090  0.0216  -1.0190   0.0000   0.0000   0.0000   0.5075
  -0.900   0.7976   0.00923   0.00197  -0.2028  0.4016  0.0215  -1.0290   0.0000   0.0000   0.0000   0.5037
  -0.800   0.8091   0.00925   0.00198  -0.2028  0.3980  0.0214  -1.0392   0.0000   0.0000   0.0000   0.5000
  -0.700   0.8202   0.00930   0.00200  -0.2029  0.3904  0.0213  -1.0492   0.0000   0.0000   0.0000   0.4965
  -0.600   0.8293   0.00951   0.00209  -0.2025  0.3673  0.0212  -1.0580   0.0000   0.0000   0.0000   0.4932
  -0.500   0.8400   0.00960   0.00213  -0.2024  0.3588  0.0212  -1.0677   0.0000   0.0000   0.0000   0.4898
  -0.400   0.8505   0.00970   0.00218  -0.2023  0.3505  0.0211  -1.0774   0.0000   0.0000   0.0000   0.4866
  -0.300   0.8612   0.00978   0.00221  -0.2023  0.3424  0.0211  -1.0872   0.0000   0.0000   0.0000   0.4834
  -0.200   0.8726   0.00981   0.00223  -0.2023  0.3385  0.0210  -1.0974   0.0000   0.0000   0.0000   0.4802
  -0.100   0.8841   0.00982   0.00225  -0.2024  0.3370  0.0210  -1.1077   0.0000   0.0000   0.0000   0.4772
   0.000   0.8954   0.00985   0.00227  -0.2024  0.3340  0.0210  -1.1180   0.0000   0.0000   0.0000   0.4741


