xflr5 v6.59

 Calculated polar for: WORTMANN FX 63-137 AIRFOIL

 1 1 Reynolds number fixed          Mach number fixed         

 xtrf =   1.000 (top)        1.000 (bottom)
 Mach =   0.000     Re =     3.700 e 6     Ncrit =   9.000

  alpha     CL        CD       CDp       Cm    Top Xtr Bot Xtr   Cpmin    Chinge    XCp    
 ------- -------- --------- --------- -------- ------- ------- -------- --------- ---------
 -18.100  -0.2202   0.18703   0.18515  -0.0773  0.8385  0.0044  -1.3902   0.0000   0.0000   0.0000  -0.1584
 -18.000  -0.2167   0.18578   0.18385  -0.0780  0.8294  0.0045  -1.3915   0.0000   0.0000   0.0000  -0.1675
 -17.900  -0.2133   0.18450   0.18257  -0.0786  0.8270  0.0045  -1.3931   0.0000   0.0000   0.0000  -0.1769
 -17.800  -0.2100   0.18325   0.18127  -0.0792  0.8137  0.0045  -1.3961   0.0000   0.0000   0.0000  -0.1862
 -17.700  -0.2068   0.18199   0.17996  -0.0798  0.8026  0.0045  -1.3993   0.0000   0.0000   0.0000  -0.1957
 -17.600  -0.2035   0.18072   0.17866  -0.0804  0.7978  0.0045  -1.4027   0.0000   0.0000   0.0000  -0.2057
 -17.500  -0.2002   0.17944   0.17736  -0.0811  0.7932  0.0045  -1.4062   0.0000   0.0000   0.0000  -0.2159
 -17.400  -0.1969   0.17816   0.17606  -0.0817  0.7888  0.0045  -1.4099   0.0000   0.0000   0.0000  -0.2264
 -17.300  -0.1937   0.17688   0.17476  -0.0823  0.7840  0.0045  -1.4137   0.0000   0.0000   0.0000  -0.2372
 -17.200  -0.1904   0.17559   0.17346  -0.0829  0.7794  0.0045  -1.4176   0.0000   0.0000   0.0000  -0.2484
 -17.100  -0.1872   0.17429   0.17215  -0.0835  0.7767  0.0045  -1.4217   0.0000   0.0000   0.0000  -0.2600
 -17.000  -0.1839   0.17299   0.17084  -0.0841  0.7745  0.0045  -1.4261   0.0000   0.0000   0.0000  -0.2720
 -16.900  -0.1807   0.17170   0.16953  -0.0847  0.7703  0.0045  -1.4305   0.0000   0.0000   0.0000  -0.2842
 -16.800  -0.1775   0.17041   0.16822  -0.0853  0.7657  0.0045  -1.4351   0.0000   0.0000   0.0000  -0.2967
 -16.700  -0.1745   0.16914   0.16692  -0.0858  0.7585  0.0045  -1.4400   0.0000   0.0000   0.0000  -0.3092
 -16.600  -0.1714   0.16786   0.16561  -0.0864  0.7515  0.0045  -1.4451   0.0000   0.0000   0.0000  -0.3223
 -16.500  -0.1682   0.16657   0.16429  -0.0870  0.7469  0.0045  -1.4504   0.0000   0.0000   0.0000  -0.3359
 -16.400  -0.1652   0.16527   0.16298  -0.0875  0.7425  0.0045  -1.4559   0.0000   0.0000   0.0000  -0.3499
 -16.300  -0.1621   0.16398   0.16167  -0.0881  0.7376  0.0045  -1.4617   0.0000   0.0000   0.0000  -0.3642
 -16.200  -0.1592   0.16271   0.16036  -0.0886  0.7314  0.0045  -1.4678   0.0000   0.0000   0.0000  -0.3786
 -16.100  -0.1562   0.16143   0.15905  -0.0891  0.7242  0.0045  -1.4741   0.0000   0.0000   0.0000  -0.3936
 -16.000  -0.1532   0.16012   0.15773  -0.0897  0.7202  0.0045  -1.4808   0.0000   0.0000   0.0000  -0.4097
 -15.900  -0.1502   0.15881   0.15642  -0.0903  0.7180  0.0045  -1.4879   0.0000   0.0000   0.0000  -0.4263
 -15.800  -0.1472   0.15751   0.15511  -0.0908  0.7136  0.0045  -1.4954   0.0000   0.0000   0.0000  -0.4431
 -15.700  -0.1445   0.15626   0.15381  -0.0913  0.7021  0.0045  -1.5033   0.0000   0.0000   0.0000  -0.4589
 -15.600  -0.1419   0.15501   0.15251  -0.0917  0.6894  0.0045  -1.5117   0.0000   0.0000   0.0000  -0.4749
 -15.500  -0.1392   0.15374   0.15120  -0.0922  0.6825  0.0045  -1.5207   0.0000   0.0000   0.0000  -0.4922
 -15.400  -0.1366   0.15248   0.14991  -0.0927  0.6753  0.0045  -1.5304   0.0000   0.0000   0.0000  -0.5094
 -15.300  -0.1340   0.15122   0.14861  -0.0932  0.6676  0.0045  -1.5409   0.0000   0.0000   0.0000  -0.5270
 -15.200  -0.1314   0.14993   0.14731  -0.0937  0.6611  0.0045  -1.5527   0.0000   0.0000   0.0000  -0.5457
 -15.100  -0.1288   0.14863   0.14600  -0.0942  0.6592  0.0045  -1.5660   0.0000   0.0000   0.0000  -0.5654
 -15.000  -0.1263   0.14729   0.14466  -0.0947  0.6573  0.0045  -1.5816   0.0000   0.0000   0.0000  -0.5855
 -14.900  -0.1238   0.14590   0.14326  -0.0953  0.6545  0.0044  -1.6016   0.0000   0.0000   0.0000  -0.6061
 -14.100  -0.1289   0.12669   0.12409  -0.1009  0.6544  0.0042  -2.8282   0.0000   0.0000   0.0000  -0.6167
 -14.000  -0.1257   0.12565   0.12302  -0.1014  0.6454  0.0042  -2.7987   0.0000   0.0000   0.0000  -0.6418
 -13.900  -0.1229   0.12470   0.12198  -0.1017  0.6245  0.0043  -2.7702   0.0000   0.0000   0.0000  -0.6641
 -13.800  -0.1197   0.12367   0.12092  -0.1021  0.6162  0.0043  -2.7409   0.0000   0.0000   0.0000  -0.6913
 -13.700  -0.1165   0.12265   0.11986  -0.1025  0.6088  0.0043  -2.7115   0.0000   0.0000   0.0000  -0.7200
 -13.600  -0.1132   0.12161   0.11880  -0.1030  0.6021  0.0043  -2.6817   0.0000   0.0000   0.0000  -0.7516
 -13.500  -0.1098   0.12056   0.11774  -0.1035  0.5979  0.0044  -2.6514   0.0000   0.0000   0.0000  -0.7866
 -13.400  -0.1064   0.11950   0.11667  -0.1040  0.5966  0.0044  -2.6206   0.0000   0.0000   0.0000  -0.8247
 -13.300  -0.1029   0.11844   0.11562  -0.1045  0.5953  0.0044  -2.5894   0.0000   0.0000   0.0000  -0.8653
 -13.200  -0.0994   0.11740   0.11458  -0.1050  0.5938  0.0045  -2.5576   0.0000   0.0000   0.0000  -0.9089
 -13.100  -0.0959   0.11638   0.11355  -0.1055  0.5919  0.0045  -2.5250   0.0000   0.0000   0.0000  -0.9556
 -13.000  -0.0923   0.11536   0.11253  -0.1060  0.5915  0.0045  -2.4915   0.0000   0.0000   0.0000  -1.0069
 -12.900  -0.0888   0.11438   0.11154  -0.1065  0.5881  0.0045  -2.4571   0.0000   0.0000   0.0000  -1.0609
 -12.800  -0.0859   0.11353   0.11062  -0.1067  0.5698  0.0045  -2.4233   0.0000   0.0000   0.0000  -1.1071
 -12.700  -0.0824   0.11260   0.10967  -0.1071  0.5622  0.0046  -2.3875   0.0000   0.0000   0.0000  -1.1675
 -12.600  -0.0789   0.11167   0.10872  -0.1076  0.5576  0.0046  -2.3514   0.0000   0.0000   0.0000  -1.2347
 -12.500  -0.0754   0.11073   0.10776  -0.1080  0.5531  0.0046  -2.3168   0.0000   0.0000   0.0000  -1.3077
 -12.400  -0.0720   0.10974   0.10675  -0.1084  0.5487  0.0046  -2.2862   0.0000   0.0000   0.0000  -1.3868
  -9.500  -0.0007   0.07486   0.07169  -0.1252  0.4598  0.0161  -2.0406   0.0000   0.0000   0.0000  -196.6645
  -9.000  -0.1388   0.00915   0.00383  -0.1970  0.5263  0.0097  -5.6811   0.0000   0.0000   0.0000  -1.2244
  -8.600  -0.0932   0.00908   0.00345  -0.1974  0.4835  0.0095  -5.2477   0.0000   0.0000   0.0000  -1.9458
  -8.400  -0.0704   0.00912   0.00340  -0.1974  0.4701  0.0064  -5.0324   0.0000   0.0000   0.0000  -2.6545
  -8.300  -0.0583   0.00906   0.00331  -0.1976  0.4667  0.0063  -4.9238   0.0000   0.0000   0.0000  -3.2603
  -8.200  -0.0461   0.00899   0.00323  -0.1979  0.4651  0.0063  -4.8159   0.0000   0.0000   0.0000  -4.1869
  -8.100  -0.0340   0.00893   0.00315  -0.1981  0.4630  0.0063  -4.7091   0.0000   0.0000   0.0000  -5.7670
  -8.000  -0.0219   0.00887   0.00307  -0.1983  0.4619  0.0062  -4.6028   0.0000   0.0000   0.0000  -9.1075
  -7.900  -0.0106   0.00888   0.00303  -0.1983  0.4487  0.0062  -4.5014   0.0000   0.0000   0.0000  -19.0565
  -7.800   0.0005   0.00890   0.00298  -0.1984  0.4327  0.0062  -4.4017   0.0000   0.0000   0.0000  422.4313
  -7.700   0.0123   0.00888   0.00293  -0.1985  0.4272  0.0061  -4.3027   0.0000   0.0000   0.0000  16.9467
  -7.600   0.0240   0.00886   0.00287  -0.1986  0.4218  0.0061  -4.2270   0.0000   0.0000   0.0000   8.7923
  -7.500   0.0357   0.00884   0.00282  -0.1988  0.4164  0.0061  -4.1518   0.0000   0.0000   0.0000   5.9948
  -7.400   0.0474   0.00882   0.00277  -0.1989  0.4106  0.0060  -4.0767   0.0000   0.0000   0.0000   4.5687
  -7.300   0.0593   0.00879   0.00273  -0.1991  0.4047  0.0060  -4.0016   0.0000   0.0000   0.0000   3.7033
  -7.200   0.0714   0.00875   0.00267  -0.1992  0.4019  0.0060  -3.9264   0.0000   0.0000   0.0000   3.1222
  -7.100   0.0834   0.00871   0.00263  -0.1994  0.4008  0.0059  -3.8516   0.0000   0.0000   0.0000   2.7083
  -7.000   0.0955   0.00867   0.00258  -0.1996  0.3994  0.0059  -3.7772   0.0000   0.0000   0.0000   2.3994
  -6.900   0.1076   0.00863   0.00253  -0.1998  0.3989  0.0059  -3.7029   0.0000   0.0000   0.0000   2.1589
  -6.800   0.1196   0.00860   0.00249  -0.1999  0.3974  0.0059  -3.6295   0.0000   0.0000   0.0000   1.9678
  -6.700   0.1316   0.00856   0.00245  -0.2001  0.3970  0.0059  -3.5562   0.0000   0.0000   0.0000   1.8110
  -6.600   0.1422   0.00864   0.00245  -0.2000  0.3766  0.0058  -3.4880   0.0000   0.0000   0.0000   1.6935
  -6.500   0.1538   0.00865   0.00243  -0.2001  0.3677  0.0058  -3.4168   0.0000   0.0000   0.0000   1.5851
  -6.400   0.1655   0.00865   0.00240  -0.2002  0.3634  0.0058  -3.3452   0.0000   0.0000   0.0000   1.4907
  -6.300   0.1771   0.00865   0.00238  -0.2003  0.3592  0.0058  -3.2740   0.0000   0.0000   0.0000   1.4091
  -6.200   0.1888   0.00865   0.00236  -0.2004  0.3549  0.0058  -3.2030   0.0000   0.0000   0.0000   1.3378
  -6.100   0.2004   0.00865   0.00234  -0.2005  0.3503  0.0058  -3.1321   0.0000   0.0000   0.0000   1.2745
  -6.000   0.2122   0.00864   0.00232  -0.2006  0.3456  0.0058  -3.0612   0.0000   0.0000   0.0000   1.2178
  -5.900   0.2240   0.00863   0.00230  -0.2008  0.3408  0.0058  -2.9902   0.0000   0.0000   0.0000   1.1669
  -5.800   0.2360   0.00861   0.00227  -0.2009  0.3388  0.0057  -2.9188   0.0000   0.0000   0.0000   1.1208
  -5.700   0.2479   0.00859   0.00226  -0.2010  0.3381  0.0057  -2.8466   0.0000   0.0000   0.0000   1.0792
  -5.600   0.2598   0.00858   0.00224  -0.2012  0.3371  0.0057  -2.7731   0.0000   0.0000   0.0000   1.0414
  -5.500   0.2716   0.00857   0.00223  -0.2013  0.3360  0.0056  -2.6954   0.0000   0.0000   0.0000   1.0072
  -5.400   0.2821   0.00866   0.00239  -0.2012  0.3345  0.0056  -2.5408   0.0000   0.0000   0.0000   0.9781
  -5.300   0.2940   0.00864   0.00238  -0.2013  0.3341  0.0056  -2.4740   0.0000   0.0000   0.0000   0.9487
  -5.200   0.3047   0.00872   0.00240  -0.2012  0.3169  0.0056  -2.4134   0.0000   0.0000   0.0000   0.9237
  -5.100   0.3160   0.00876   0.00239  -0.2013  0.3064  0.0056  -2.3529   0.0000   0.0000   0.0000   0.8994
  -5.000   0.3277   0.00876   0.00238  -0.2014  0.3023  0.0055  -2.2932   0.0000   0.0000   0.0000   0.8763
  -4.900   0.3394   0.00876   0.00236  -0.2015  0.2983  0.0055  -2.2352   0.0000   0.0000   0.0000   0.8549
  -4.800   0.3510   0.00877   0.00234  -0.2016  0.2942  0.0055  -2.1787   0.0000   0.0000   0.0000   0.8348
  -4.700   0.3627   0.00877   0.00232  -0.2017  0.2900  0.0054  -2.1235   0.0000   0.0000   0.0000   0.8160
  -4.600   0.3745   0.00877   0.00230  -0.2018  0.2857  0.0054  -2.0694   0.0000   0.0000   0.0000   0.7983
  -4.500   0.3864   0.00875   0.00227  -0.2020  0.2810  0.0054  -2.0167   0.0000   0.0000   0.0000   0.7815
  -4.400   0.3984   0.00873   0.00223  -0.2021  0.2785  0.0054  -1.9661   0.0000   0.0000   0.0000   0.7657
  -4.300   0.4104   0.00871   0.00221  -0.2023  0.2778  0.0054  -1.9158   0.0000   0.0000   0.0000   0.7508
  -4.200   0.4225   0.00869   0.00218  -0.2025  0.2770  0.0053  -1.8674   0.0000   0.0000   0.0000   0.7367
  -4.100   0.4345   0.00867   0.00215  -0.2026  0.2761  0.0053  -1.8210   0.0000   0.0000   0.0000   0.7234
  -4.000   0.4467   0.00864   0.00210  -0.2028  0.2747  0.0053  -1.7907   0.0000   0.0000   0.0000   0.7107
  -3.900   0.4591   0.00860   0.00203  -0.2030  0.2743  0.0053  -1.7781   0.0000   0.0000   0.0000   0.6986
  -3.800   0.4703   0.00865   0.00204  -0.2030  0.2625  0.0054  -1.7437   0.0000   0.0000   0.0000   0.6877
  -3.700   0.4813   0.00872   0.00206  -0.2030  0.2490  0.0055  -1.7092   0.0000   0.0000   0.0000   0.6775
  -3.600   0.4940   0.00865   0.00203  -0.2034  0.2459  0.0138  -1.7366   0.0000   0.0000   0.0000   0.6670
  -3.500   0.5055   0.00867   0.00204  -0.2034  0.2429  0.0143  -1.6721   0.0000   0.0000   0.0000   0.6574
  -3.400   0.5170   0.00870   0.00205  -0.2035  0.2399  0.0147  -1.6069   0.0000   0.0000   0.0000   0.6483
  -3.300   0.5284   0.00872   0.00206  -0.2036  0.2369  0.0150  -1.5403   0.0000   0.0000   0.0000   0.6397
  -3.200   0.5398   0.00875   0.00207  -0.2036  0.2339  0.0153  -1.4718   0.0000   0.0000   0.0000   0.6313
  -3.100   0.5513   0.00877   0.00209  -0.2037  0.2308  0.0156  -1.4014   0.0000   0.0000   0.0000   0.6233
  -3.000   0.5627   0.00880   0.00211  -0.2037  0.2272  0.0158  -1.3305   0.0000   0.0000   0.0000   0.6157
  -2.900   0.5742   0.00881   0.00213  -0.2038  0.2241  0.0160  -1.2614   0.0000   0.0000   0.0000   0.6083
  -2.800   0.5858   0.00882   0.00214  -0.2039  0.2221  0.0162  -1.1956   0.0000   0.0000   0.0000   0.6012
  -2.700   0.5974   0.00883   0.00215  -0.2040  0.2217  0.0163  -1.1344   0.0000   0.0000   0.0000   0.5943
  -2.600   0.6092   0.00883   0.00215  -0.2041  0.2212  0.0164  -1.0783   0.0000   0.0000   0.0000   0.5877
  -2.500   0.6210   0.00883   0.00214  -0.2042  0.2206  0.0165  -1.0293   0.0000   0.0000   0.0000   0.5813
  -2.400   0.6330   0.00881   0.00211  -0.2044  0.2200  0.0163  -0.9961   0.0000   0.0000   0.0000   0.5751
  -2.300   0.6421   0.00906   0.00217  -0.2040  0.1836  0.0158  -0.9966   0.0000   0.0000   0.0000   0.5697
  -2.200   0.6534   0.00910   0.00219  -0.2040  0.1778  0.0160  -0.9399   0.0000   0.0000   0.0000   0.5641
  -2.100   0.6649   0.00912   0.00220  -0.2041  0.1746  0.0162  -0.9246   0.0000   0.0000   0.0000   0.5586
  -2.000   0.6765   0.00913   0.00222  -0.2042  0.1721  0.0163  -0.9334   0.0000   0.0000   0.0000   0.5533
  -1.900   0.6881   0.00915   0.00222  -0.2043  0.1703  0.0164  -0.9421   0.0000   0.0000   0.0000   0.5481
  -1.800   0.6998   0.00915   0.00223  -0.2044  0.1700  0.0165  -0.9509   0.0000   0.0000   0.0000   0.5431
  -1.700   0.7114   0.00916   0.00224  -0.2045  0.1696  0.0166  -0.9597   0.0000   0.0000   0.0000   0.5383
  -1.600   0.7230   0.00917   0.00225  -0.2046  0.1693  0.0167  -0.9694   0.0000   0.0000   0.0000   0.5336
  -1.500   0.7346   0.00919   0.00226  -0.2047  0.1689  0.0167  -0.9798   0.0000   0.0000   0.0000   0.5291
  -1.400   0.7463   0.00920   0.00226  -0.2047  0.1684  0.0168  -0.9901   0.0000   0.0000   0.0000   0.5247
  -1.300   0.7579   0.00921   0.00227  -0.2048  0.1679  0.0168  -1.0005   0.0000   0.0000   0.0000   0.5205
  -1.200   0.7695   0.00922   0.00228  -0.2049  0.1672  0.0169  -1.0109   0.0000   0.0000   0.0000   0.5163
  -1.100   0.7810   0.00924   0.00229  -0.2050  0.1663  0.0169  -1.0213   0.0000   0.0000   0.0000   0.5123
  -1.000   0.7926   0.00925   0.00230  -0.2051  0.1657  0.0169  -1.0317   0.0000   0.0000   0.0000   0.5084
  -0.900   0.8035   0.00933   0.00235  -0.2050  0.1568  0.0170  -1.0420   0.0000   0.0000   0.0000   0.5047
  -0.800   0.8140   0.00943   0.00240  -0.2049  0.1458  0.0170  -1.0522   0.0000   0.0000   0.0000   0.5011
  -0.700   0.8254   0.00946   0.00242  -0.2050  0.1442  0.0170  -1.0626   0.0000   0.0000   0.0000   0.4975
  -0.400   0.8588   0.00961   0.00249  -0.2050  0.1341  0.0187  -1.0933   0.0000   0.0000   0.0000   0.4874
  -0.300   0.8702   0.00964   0.00251  -0.2050  0.1313  0.0188  -1.1036   0.0000   0.0000   0.0000   0.4842
  -0.200   0.8815   0.00967   0.00253  -0.2051  0.1292  0.0188  -1.1140   0.0000   0.0000   0.0000   0.4811
  -0.100   0.8929   0.00970   0.00255  -0.2051  0.1272  0.0189  -1.1243   0.0000   0.0000   0.0000   0.4780
   0.000   0.9043   0.00972   0.00258  -0.2051  0.1254  0.0188  -1.1347   0.0000   0.0000   0.0000   0.4750


