xflr5 v6.59

 Calculated polar for: WORTMANN FX 63-137 AIRFOIL

 1 1 Reynolds number fixed          Mach number fixed         

 xtrf =   1.000 (top)        1.000 (bottom)
 Mach =   0.000     Re =     2.600 e 6     Ncrit =   9.000

  alpha     CL        CD       CDp       Cm    Top Xtr Bot Xtr   Cpmin    Chinge    XCp    
 ------- -------- --------- --------- -------- ------- ------- -------- --------- ---------
 -15.100  -0.1491   0.14111   0.13912  -0.0953  0.8461  0.0033  -2.4648   0.0000   0.0000   0.0000  -0.4656
 -15.000  -0.1532   0.13764   0.13562  -0.0961  0.8415  0.0033  -2.8084   0.0000   0.0000   0.0000  -0.4520
 -14.900  -0.1515   0.13615   0.13409  -0.0966  0.8327  0.0035  -2.8569   0.0000   0.0000   0.0000  -0.4626
 -14.800  -0.1488   0.13492   0.13284  -0.0971  0.8258  0.0036  -2.8582   0.0000   0.0000   0.0000  -0.4784
 -14.700  -0.1457   0.13377   0.13166  -0.0976  0.8195  0.0038  -2.8445   0.0000   0.0000   0.0000  -0.4970
 -14.600  -0.1427   0.13269   0.13054  -0.0981  0.8107  0.0038  -2.8245   0.0000   0.0000   0.0000  -0.5157
 -14.500  -0.1395   0.13162   0.12944  -0.0985  0.8035  0.0039  -2.8012   0.0000   0.0000   0.0000  -0.5355
 -14.400  -0.1362   0.13053   0.12833  -0.0990  0.7992  0.0040  -2.7756   0.0000   0.0000   0.0000  -0.5580
 -14.300  -0.1328   0.12946   0.12724  -0.0995  0.7944  0.0041  -2.7486   0.0000   0.0000   0.0000  -0.5815
 -14.200  -0.1295   0.12841   0.12616  -0.1000  0.7888  0.0041  -2.7209   0.0000   0.0000   0.0000  -0.6058
 -14.100  -0.1263   0.12737   0.12509  -0.1005  0.7821  0.0042  -2.6926   0.0000   0.0000   0.0000  -0.6308
 -14.000  -0.1229   0.12632   0.12402  -0.1009  0.7767  0.0042  -2.6636   0.0000   0.0000   0.0000  -0.6583
 -13.900  -0.1194   0.12525   0.12294  -0.1014  0.7727  0.0043  -2.6341   0.0000   0.0000   0.0000  -0.6884
 -13.800  -0.1161   0.12422   0.12188  -0.1019  0.7653  0.0043  -2.6045   0.0000   0.0000   0.0000  -0.7189
 -13.700  -0.1129   0.12323   0.12084  -0.1023  0.7544  0.0044  -2.5750   0.0000   0.0000   0.0000  -0.7484
 -13.600  -0.1096   0.12221   0.11979  -0.1027  0.7468  0.0044  -2.5450   0.0000   0.0000   0.0000  -0.7820
 -13.500  -0.1062   0.12118   0.11874  -0.1032  0.7414  0.0044  -2.5145   0.0000   0.0000   0.0000  -0.8188
 -13.400  -0.1028   0.12017   0.11770  -0.1036  0.7358  0.0045  -2.4838   0.0000   0.0000   0.0000  -0.8576
 -13.300  -0.0995   0.11917   0.11667  -0.1041  0.7298  0.0045  -2.4528   0.0000   0.0000   0.0000  -0.8984
 -13.200  -0.0961   0.11816   0.11564  -0.1045  0.7232  0.0045  -2.4213   0.0000   0.0000   0.0000  -0.9429
 -13.100  -0.0925   0.11714   0.11461  -0.1050  0.7200  0.0045  -2.3889   0.0000   0.0000   0.0000  -0.9934
 -13.000  -0.0889   0.11612   0.11359  -0.1055  0.7178  0.0046  -2.3560   0.0000   0.0000   0.0000  -1.0486
 -12.900  -0.0853   0.11511   0.11257  -0.1060  0.7145  0.0046  -2.3227   0.0000   0.0000   0.0000  -1.1077
 -12.600  -0.0960   0.10676   0.10426  -0.1093  0.7157  0.0082  -2.7264   0.0000   0.0000   0.0000  -0.9919
 -12.500  -0.1053   0.10230   0.09982  -0.1109  0.7188  0.0084  -3.0290   0.0000   0.0000   0.0000  -0.8989
 -11.900  -0.0633   0.10081   0.09811  -0.1123  0.6706  0.0099  -2.4392   0.0000   0.0000   0.0000  -1.6704
  -9.700  -0.2223   0.01032   0.00529  -0.1941  0.6877  0.0065  -6.5132   0.0000   0.0000   0.0000  -0.6612
  -9.600  -0.2103   0.01019   0.00513  -0.1944  0.6852  0.0065  -6.3754   0.0000   0.0000   0.0000  -0.7140
  -9.500  -0.1983   0.01007   0.00498  -0.1946  0.6826  0.0064  -6.2557   0.0000   0.0000   0.0000  -0.7732
  -9.400  -0.1863   0.00996   0.00484  -0.1949  0.6799  0.0064  -6.1397   0.0000   0.0000   0.0000  -0.8399
  -9.300  -0.1744   0.00985   0.00468  -0.1952  0.6762  0.0064  -6.0260   0.0000   0.0000   0.0000  -0.9148
  -9.200  -0.1628   0.00976   0.00455  -0.1953  0.6695  0.0063  -5.9134   0.0000   0.0000   0.0000  -0.9978
  -9.100  -0.1511   0.00966   0.00441  -0.1956  0.6608  0.0063  -5.8008   0.0000   0.0000   0.0000  -1.0951
  -9.000  -0.1389   0.00953   0.00427  -0.1959  0.6583  0.0063  -5.6861   0.0000   0.0000   0.0000  -1.2151
  -8.900  -0.1268   0.00942   0.00414  -0.1962  0.6539  0.0063  -5.5728   0.0000   0.0000   0.0000  -1.3560
  -8.800  -0.1156   0.00937   0.00404  -0.1962  0.6399  0.0063  -5.4646   0.0000   0.0000   0.0000  -1.5111
  -8.700  -0.1046   0.00935   0.00394  -0.1963  0.6243  0.0062  -5.3581   0.0000   0.0000   0.0000  -1.6954
  -8.600  -0.0931   0.00930   0.00384  -0.1964  0.6157  0.0062  -5.2498   0.0000   0.0000   0.0000  -1.9365
  -8.500  -0.0817   0.00926   0.00374  -0.1965  0.6071  0.0062  -5.1428   0.0000   0.0000   0.0000  -2.2421
  -8.400  -0.0699   0.00920   0.00365  -0.1967  0.6002  0.0062  -5.0349   0.0000   0.0000   0.0000  -2.6635
  -8.300  -0.0578   0.00913   0.00355  -0.1969  0.5970  0.0062  -4.9265   0.0000   0.0000   0.0000  -3.2750
  -8.200  -0.0457   0.00905   0.00346  -0.1972  0.5957  0.0061  -4.8185   0.0000   0.0000   0.0000  -4.2175
  -8.100  -0.0335   0.00898   0.00337  -0.1974  0.5940  0.0061  -4.7114   0.0000   0.0000   0.0000  -5.8395
  -8.000  -0.0214   0.00891   0.00329  -0.1976  0.5917  0.0061  -4.6055   0.0000   0.0000   0.0000  -9.2810
  -7.900  -0.0095   0.00886   0.00321  -0.1978  0.5875  0.0061  -4.5011   0.0000   0.0000   0.0000  -21.3322
  -7.800   0.0020   0.00884   0.00315  -0.1979  0.5780  0.0061  -4.3995   0.0000   0.0000   0.0000  100.3345
  -7.700   0.0130   0.00886   0.00309  -0.1979  0.5624  0.0060  -4.3013   0.0000   0.0000   0.0000  15.9437
  -7.600   0.0248   0.00882   0.00302  -0.1981  0.5566  0.0060  -4.2026   0.0000   0.0000   0.0000   8.4942
  -7.500   0.0365   0.00880   0.00296  -0.1982  0.5510  0.0060  -4.1276   0.0000   0.0000   0.0000   5.8497
  -7.400   0.0481   0.00878   0.00291  -0.1983  0.5452  0.0060  -4.0531   0.0000   0.0000   0.0000   4.4959
  -7.300   0.0598   0.00875   0.00285  -0.1985  0.5387  0.0060  -3.9790   0.0000   0.0000   0.0000   3.6670
  -7.200   0.0717   0.00872   0.00279  -0.1986  0.5331  0.0060  -3.9044   0.0000   0.0000   0.0000   3.1009
  -7.100   0.0838   0.00867   0.00274  -0.1988  0.5313  0.0060  -3.8295   0.0000   0.0000   0.0000   2.6912
  -7.000   0.0958   0.00863   0.00268  -0.1990  0.5296  0.0060  -3.7548   0.0000   0.0000   0.0000   2.3852
  -6.900   0.1079   0.00858   0.00261  -0.1992  0.5286  0.0061  -3.6799   0.0000   0.0000   0.0000   2.1469
  -6.800   0.1199   0.00855   0.00257  -0.1994  0.5257  0.0061  -3.6064   0.0000   0.0000   0.0000   1.9582
  -6.700   0.1319   0.00851   0.00252  -0.1995  0.5237  0.0061  -3.5330   0.0000   0.0000   0.0000   1.8032
  -6.600   0.1423   0.00859   0.00252  -0.1994  0.5019  0.0061  -3.4653   0.0000   0.0000   0.0000   1.6883
  -6.500   0.1539   0.00859   0.00248  -0.1995  0.4943  0.0061  -3.3940   0.0000   0.0000   0.0000   1.5800
  -6.400   0.1655   0.00858   0.00244  -0.1996  0.4883  0.0061  -3.3231   0.0000   0.0000   0.0000   1.4867
  -6.300   0.1770   0.00859   0.00242  -0.1997  0.4823  0.0060  -3.2529   0.0000   0.0000   0.0000   1.4061
  -6.200   0.1886   0.00859   0.00239  -0.1998  0.4761  0.0060  -3.1828   0.0000   0.0000   0.0000   1.3353
  -6.100   0.2003   0.00858   0.00236  -0.1999  0.4693  0.0060  -3.1123   0.0000   0.0000   0.0000   1.2720
  -6.000   0.2122   0.00856   0.00233  -0.2001  0.4664  0.0060  -3.0410   0.0000   0.0000   0.0000   1.2148
  -5.900   0.2242   0.00853   0.00230  -0.2002  0.4647  0.0060  -2.9686   0.0000   0.0000   0.0000   1.1637
  -5.800   0.2361   0.00851   0.00227  -0.2004  0.4624  0.0059  -2.8945   0.0000   0.0000   0.0000   1.1180
  -5.700   0.2479   0.00850   0.00226  -0.2005  0.4601  0.0059  -2.8171   0.0000   0.0000   0.0000   1.0768
  -5.600   0.2585   0.00858   0.00229  -0.2004  0.4449  0.0059  -2.7326   0.0000   0.0000   0.0000   1.0421
  -5.500   0.2683   0.00873   0.00246  -0.2001  0.4317  0.0059  -2.5967   0.0000   0.0000   0.0000   1.0118
  -5.400   0.2798   0.00874   0.00245  -0.2002  0.4264  0.0059  -2.5280   0.0000   0.0000   0.0000   0.9804
  -5.300   0.2913   0.00875   0.00244  -0.2003  0.4211  0.0059  -2.4625   0.0000   0.0000   0.0000   0.9516
  -5.200   0.3028   0.00876   0.00243  -0.2004  0.4157  0.0059  -2.3993   0.0000   0.0000   0.0000   0.9249
  -5.100   0.3144   0.00877   0.00241  -0.2005  0.4100  0.0059  -2.3375   0.0000   0.0000   0.0000   0.9001
  -5.000   0.3262   0.00876   0.00239  -0.2006  0.4042  0.0059  -2.2770   0.0000   0.0000   0.0000   0.8768
  -4.900   0.3381   0.00874   0.00236  -0.2007  0.4017  0.0059  -2.2175   0.0000   0.0000   0.0000   0.8548
  -4.800   0.3501   0.00871   0.00233  -0.2009  0.4005  0.0059  -2.1592   0.0000   0.0000   0.0000   0.8343
  -4.700   0.3621   0.00869   0.00230  -0.2011  0.3989  0.0058  -2.1024   0.0000   0.0000   0.0000   0.8152
  -4.600   0.3740   0.00867   0.00227  -0.2012  0.3965  0.0058  -2.0470   0.0000   0.0000   0.0000   0.7974
  -4.400   0.3963   0.00876   0.00226  -0.2013  0.3732  0.0059  -1.9446   0.0000   0.0000   0.0000   0.7662
  -4.300   0.4079   0.00877   0.00224  -0.2014  0.3665  0.0059  -1.8935   0.0000   0.0000   0.0000   0.7516
  -4.200   0.4196   0.00878   0.00222  -0.2015  0.3620  0.0059  -1.8434   0.0000   0.0000   0.0000   0.7376
  -4.100   0.4312   0.00878   0.00220  -0.2016  0.3577  0.0059  -1.7946   0.0000   0.0000   0.0000   0.7245
  -4.000   0.4428   0.00880   0.00218  -0.2017  0.3533  0.0060  -1.7471   0.0000   0.0000   0.0000   0.7121
  -3.900   0.4545   0.00881   0.00217  -0.2018  0.3487  0.0061  -1.7005   0.0000   0.0000   0.0000   0.7003
  -3.800   0.4658   0.00883   0.00220  -0.2018  0.3435  0.0066  -1.6440   0.0000   0.0000   0.0000   0.6892
  -3.700   0.4802   0.00865   0.00199  -0.2025  0.3393  0.0147  -1.7523   0.0000   0.0000   0.0000   0.6772
  -3.600   0.4918   0.00866   0.00201  -0.2025  0.3384  0.0152  -1.6708   0.0000   0.0000   0.0000   0.6671
  -3.500   0.5032   0.00868   0.00205  -0.2026  0.3375  0.0156  -1.5866   0.0000   0.0000   0.0000   0.6576
  -3.400   0.5145   0.00871   0.00209  -0.2026  0.3364  0.0160  -1.5032   0.0000   0.0000   0.0000   0.6485
  -3.300   0.5259   0.00873   0.00212  -0.2027  0.3349  0.0162  -1.4236   0.0000   0.0000   0.0000   0.6398
  -3.200   0.5373   0.00874   0.00216  -0.2027  0.3330  0.0165  -1.3482   0.0000   0.0000   0.0000   0.6314
  -3.100   0.5487   0.00877   0.00221  -0.2028  0.3300  0.0167  -1.2761   0.0000   0.0000   0.0000   0.6235
  -3.000   0.5582   0.00894   0.00232  -0.2025  0.3081  0.0169  -1.2085   0.0000   0.0000   0.0000   0.6164
  -2.300   0.6400   0.00902   0.00215  -0.2033  0.2778  0.0168  -0.9037   0.0000   0.0000   0.0000   0.5696
  -2.200   0.6514   0.00904   0.00217  -0.2033  0.2736  0.0169  -0.9045   0.0000   0.0000   0.0000   0.5640
  -2.100   0.6608   0.00924   0.00228  -0.2030  0.2476  0.0171  -0.9173   0.0000   0.0000   0.0000   0.5589
  -1.200   0.7642   0.00946   0.00231  -0.2037  0.2166  0.0187  -0.9978   0.0000   0.0000   0.0000   0.5165
  -1.100   0.7739   0.00963   0.00239  -0.2034  0.1956  0.0188  -1.0112   0.0000   0.0000   0.0000   0.5127
  -1.000   0.7853   0.00966   0.00240  -0.2035  0.1931  0.0189  -1.0217   0.0000   0.0000   0.0000   0.5088
  -0.900   0.7967   0.00969   0.00241  -0.2035  0.1906  0.0191  -1.0324   0.0000   0.0000   0.0000   0.5050
  -0.800   0.8081   0.00973   0.00243  -0.2036  0.1881  0.0193  -1.0432   0.0000   0.0000   0.0000   0.5013
  -0.700   0.8194   0.00976   0.00244  -0.2036  0.1857  0.0195  -1.0540   0.0000   0.0000   0.0000   0.4977
  -0.600   0.8307   0.00980   0.00246  -0.2036  0.1832  0.0196  -1.0648   0.0000   0.0000   0.0000   0.4942
  -0.500   0.8420   0.00984   0.00248  -0.2037  0.1806  0.0197  -1.0754   0.0000   0.0000   0.0000   0.4908
  -0.400   0.8532   0.00988   0.00250  -0.2037  0.1760  0.0196  -1.0861   0.0000   0.0000   0.0000   0.4875
  -0.300   0.8645   0.00992   0.00252  -0.2037  0.1706  0.0195  -1.0968   0.0000   0.0000   0.0000   0.4842
  -0.200   0.8759   0.00994   0.00254  -0.2037  0.1695  0.0193  -1.1073   0.0000   0.0000   0.0000   0.4810
  -0.100   0.8873   0.00997   0.00256  -0.2038  0.1686  0.0192  -1.1177   0.0000   0.0000   0.0000   0.4780
   0.000   0.8987   0.00999   0.00259  -0.2038  0.1678  0.0191  -1.1282   0.0000   0.0000   0.0000   0.4749


