xflr5 v6.59

 Calculated polar for: WORTMANN FX 63-137 AIRFOIL

 1 1 Reynolds number fixed          Mach number fixed         

 xtrf =   1.000 (top)        1.000 (bottom)
 Mach =   0.000     Re =     3.900 e 6     Ncrit =   9.000

  alpha     CL        CD       CDp       Cm    Top Xtr Bot Xtr   Cpmin    Chinge    XCp    
 ------- -------- --------- --------- -------- ------- ------- -------- --------- ---------
 -16.100  -0.1955   0.14811   0.14586  -0.0904  0.7375  0.0027  -3.4123   0.0000   0.0000   0.0000  -0.2764
 -16.000  -0.1926   0.14696   0.14469  -0.0910  0.7349  0.0028  -3.4066   0.0000   0.0000   0.0000  -0.2867
 -15.900  -0.1894   0.14587   0.14360  -0.0915  0.7322  0.0029  -3.3863   0.0000   0.0000   0.0000  -0.2982
 -15.800  -0.1861   0.14479   0.14250  -0.0921  0.7290  0.0031  -3.3595   0.0000   0.0000   0.0000  -0.3105
 -15.700  -0.1827   0.14371   0.14141  -0.0927  0.7260  0.0032  -3.3299   0.0000   0.0000   0.0000  -0.3238
 -15.600  -0.1792   0.14262   0.14031  -0.0932  0.7231  0.0033  -3.2990   0.0000   0.0000   0.0000  -0.3376
 -15.500  -0.1757   0.14153   0.13922  -0.0938  0.7210  0.0034  -3.2675   0.0000   0.0000   0.0000  -0.3521
 -15.400  -0.1722   0.14044   0.13812  -0.0944  0.7203  0.0035  -3.2359   0.0000   0.0000   0.0000  -0.3672
 -15.300  -0.1687   0.13934   0.13703  -0.0950  0.7196  0.0035  -3.2044   0.0000   0.0000   0.0000  -0.3830
 -15.200  -0.1652   0.13824   0.13593  -0.0955  0.7188  0.0036  -3.1734   0.0000   0.0000   0.0000  -0.3993
 -15.100  -0.1619   0.13711   0.13478  -0.0961  0.7174  0.0037  -3.1467   0.0000   0.0000   0.0000  -0.4158
 -15.000  -0.1585   0.13604   0.13369  -0.0966  0.7116  0.0037  -3.1159   0.0000   0.0000   0.0000  -0.4328
 -14.900  -0.1555   0.13505   0.13263  -0.0970  0.6919  0.0038  -3.0860   0.0000   0.0000   0.0000  -0.4480
 -14.800  -0.1522   0.13400   0.13153  -0.0975  0.6832  0.0039  -3.0557   0.0000   0.0000   0.0000  -0.4656
 -14.700  -0.1491   0.13296   0.13046  -0.0980  0.6736  0.0039  -3.0258   0.0000   0.0000   0.0000  -0.4833
 -14.600  -0.1459   0.13192   0.12937  -0.0985  0.6629  0.0040  -2.9959   0.0000   0.0000   0.0000  -0.5021
 -14.500  -0.1425   0.13084   0.12828  -0.0990  0.6589  0.0040  -2.9658   0.0000   0.0000   0.0000  -0.5233
 -14.400  -0.1391   0.12975   0.12718  -0.0995  0.6553  0.0041  -2.9358   0.0000   0.0000   0.0000  -0.5453
 -14.300  -0.1359   0.12871   0.12611  -0.1000  0.6454  0.0041  -2.9065   0.0000   0.0000   0.0000  -0.5666
 -14.200  -0.1331   0.12776   0.12506  -0.1003  0.6228  0.0041  -2.8782   0.0000   0.0000   0.0000  -0.5853
 -14.100  -0.1301   0.12674   0.12400  -0.1007  0.6127  0.0042  -2.8493   0.0000   0.0000   0.0000  -0.6076
 -14.000  -0.1269   0.12571   0.12293  -0.1012  0.6032  0.0042  -2.8203   0.0000   0.0000   0.0000  -0.6316
 -13.900  -0.1236   0.12464   0.12185  -0.1017  0.5970  0.0042  -2.7909   0.0000   0.0000   0.0000  -0.6588
 -13.800  -0.1202   0.12356   0.12076  -0.1022  0.5950  0.0043  -2.7613   0.0000   0.0000   0.0000  -0.6883
 -13.700  -0.1168   0.12249   0.11968  -0.1027  0.5928  0.0043  -2.7316   0.0000   0.0000   0.0000  -0.7193
  -8.700  -0.1046   0.00905   0.00350  -0.1975  0.4686  0.0097  -5.3562   0.0000   0.0000   0.0000  -1.7080
  -8.600  -0.0931   0.00909   0.00342  -0.1975  0.4663  0.0095  -5.2473   0.0000   0.0000   0.0000  -1.9475
  -8.300  -0.0595   0.00932   0.00341  -0.1971  0.4620  0.0094  -4.9238   0.0000   0.0000   0.0000  -3.1797
  -8.200  -0.0465   0.00902   0.00322  -0.1979  0.4416  0.0064  -4.8173   0.0000   0.0000   0.0000  -4.1482
  -8.100  -0.0349   0.00900   0.00315  -0.1980  0.4312  0.0063  -4.7128   0.0000   0.0000   0.0000  -5.6095
  -8.000  -0.0231   0.00896   0.00308  -0.1982  0.4258  0.0063  -4.6081   0.0000   0.0000   0.0000  -8.6001
  -7.900  -0.0114   0.00894   0.00302  -0.1983  0.4204  0.0063  -4.5047   0.0000   0.0000   0.0000  -17.6893
  -7.800   0.0003   0.00891   0.00296  -0.1984  0.4149  0.0062  -4.4020   0.0000   0.0000   0.0000  667.6489
  -7.700   0.0122   0.00888   0.00291  -0.1986  0.4091  0.0062  -4.3056   0.0000   0.0000   0.0000  17.0937
  -7.600   0.0241   0.00884   0.00285  -0.1988  0.4035  0.0062  -4.2289   0.0000   0.0000   0.0000   8.7425
  -7.500   0.0362   0.00880   0.00279  -0.1989  0.4016  0.0061  -4.1523   0.0000   0.0000   0.0000   5.9122
  -7.400   0.0483   0.00875   0.00274  -0.1991  0.4005  0.0061  -4.0762   0.0000   0.0000   0.0000   4.4981
  -7.300   0.0603   0.00871   0.00269  -0.1993  0.3990  0.0060  -4.0006   0.0000   0.0000   0.0000   3.6513
  -7.200   0.0724   0.00867   0.00264  -0.1995  0.3976  0.0060  -3.9253   0.0000   0.0000   0.0000   3.0865
  -7.100   0.0845   0.00863   0.00259  -0.1997  0.3971  0.0060  -3.8503   0.0000   0.0000   0.0000   2.6816
  -7.000   0.0949   0.00872   0.00260  -0.1996  0.3727  0.0060  -3.7814   0.0000   0.0000   0.0000   2.4121
  -6.900   0.1069   0.00869   0.00254  -0.1997  0.3700  0.0059  -3.7073   0.0000   0.0000   0.0000   2.1707
  -6.800   0.1187   0.00868   0.00250  -0.1999  0.3661  0.0059  -3.6345   0.0000   0.0000   0.0000   1.9798
  -6.700   0.1305   0.00867   0.00247  -0.2000  0.3620  0.0059  -3.5623   0.0000   0.0000   0.0000   1.8241
  -6.600   0.1422   0.00866   0.00244  -0.2001  0.3579  0.0058  -3.4905   0.0000   0.0000   0.0000   1.6947
  -6.500   0.1538   0.00866   0.00242  -0.2002  0.3537  0.0058  -3.4189   0.0000   0.0000   0.0000   1.5852
  -6.400   0.1656   0.00865   0.00239  -0.2003  0.3492  0.0058  -3.3472   0.0000   0.0000   0.0000   1.4907
  -6.300   0.1774   0.00864   0.00237  -0.2004  0.3442  0.0058  -3.2754   0.0000   0.0000   0.0000   1.4083
  -6.200   0.1893   0.00862   0.00234  -0.2006  0.3401  0.0058  -3.2035   0.0000   0.0000   0.0000   1.3358
  -6.100   0.2012   0.00860   0.00232  -0.2007  0.3387  0.0058  -3.1315   0.0000   0.0000   0.0000   1.2716
  -6.000   0.2132   0.00858   0.00229  -0.2009  0.3379  0.0058  -3.0597   0.0000   0.0000   0.0000   1.2147
  -5.900   0.2251   0.00856   0.00227  -0.2010  0.3370  0.0058  -2.9878   0.0000   0.0000   0.0000   1.1638
  -5.800   0.2370   0.00854   0.00225  -0.2012  0.3358  0.0057  -2.9159   0.0000   0.0000   0.0000   1.1181
  -5.700   0.2489   0.00853   0.00224  -0.2013  0.3345  0.0057  -2.8435   0.0000   0.0000   0.0000   1.0769
  -5.600   0.2608   0.00851   0.00222  -0.2014  0.3342  0.0057  -2.7692   0.0000   0.0000   0.0000   1.0393
  -5.500   0.2711   0.00862   0.00227  -0.2013  0.3131  0.0056  -2.6948   0.0000   0.0000   0.0000   1.0084
  -5.300   0.2929   0.00875   0.00243  -0.2012  0.3018  0.0056  -2.4755   0.0000   0.0000   0.0000   0.9510
  -5.200   0.3045   0.00876   0.00242  -0.2013  0.2978  0.0056  -2.4126   0.0000   0.0000   0.0000   0.9243
  -5.100   0.3161   0.00877   0.00240  -0.2014  0.2938  0.0055  -2.3516   0.0000   0.0000   0.0000   0.8995
  -5.000   0.3278   0.00877   0.00238  -0.2015  0.2896  0.0055  -2.2922   0.0000   0.0000   0.0000   0.8764
  -4.900   0.3396   0.00876   0.00236  -0.2016  0.2852  0.0055  -2.2340   0.0000   0.0000   0.0000   0.8547
  -4.800   0.3515   0.00875   0.00234  -0.2017  0.2807  0.0054  -2.1772   0.0000   0.0000   0.0000   0.8344
  -4.700   0.3635   0.00873   0.00231  -0.2019  0.2786  0.0054  -2.1216   0.0000   0.0000   0.0000   0.8154
  -4.600   0.3755   0.00871   0.00228  -0.2021  0.2779  0.0054  -2.0674   0.0000   0.0000   0.0000   0.7975
  -4.500   0.3875   0.00868   0.00225  -0.2022  0.2771  0.0053  -2.0148   0.0000   0.0000   0.0000   0.7807
  -4.400   0.3995   0.00866   0.00222  -0.2024  0.2761  0.0053  -1.9645   0.0000   0.0000   0.0000   0.7650
  -4.300   0.4115   0.00865   0.00219  -0.2025  0.2747  0.0053  -1.9148   0.0000   0.0000   0.0000   0.7501
  -4.200   0.4236   0.00862   0.00216  -0.2027  0.2744  0.0053  -1.8667   0.0000   0.0000   0.0000   0.7361
  -4.100   0.4347   0.00868   0.00216  -0.2027  0.2610  0.0053  -1.8227   0.0000   0.0000   0.0000   0.7235
  -4.000   0.4462   0.00871   0.00212  -0.2028  0.2488  0.0053  -1.8067   0.0000   0.0000   0.0000   0.7112
  -3.900   0.4582   0.00869   0.00208  -0.2029  0.2458  0.0053  -1.7843   0.0000   0.0000   0.0000   0.6992
  -3.800   0.4700   0.00870   0.00207  -0.2031  0.2428  0.0053  -1.7463   0.0000   0.0000   0.0000   0.6880
  -3.700   0.4817   0.00871   0.00206  -0.2031  0.2398  0.0053  -1.7077   0.0000   0.0000   0.0000   0.6774
  -3.600   0.4944   0.00865   0.00203  -0.2035  0.2368  0.0135  -1.7408   0.0000   0.0000   0.0000   0.6669
  -3.500   0.5059   0.00866   0.00204  -0.2036  0.2338  0.0141  -1.6770   0.0000   0.0000   0.0000   0.6574
  -3.400   0.5176   0.00867   0.00204  -0.2037  0.2307  0.0145  -1.6128   0.0000   0.0000   0.0000   0.6482
  -3.300   0.5292   0.00868   0.00205  -0.2037  0.2272  0.0148  -1.5478   0.0000   0.0000   0.0000   0.6395
  -3.200   0.5408   0.00870   0.00205  -0.2038  0.2240  0.0151  -1.4814   0.0000   0.0000   0.0000   0.6311
  -3.100   0.5524   0.00871   0.00206  -0.2039  0.2221  0.0154  -1.4133   0.0000   0.0000   0.0000   0.6230
  -3.000   0.5640   0.00872   0.00208  -0.2040  0.2217  0.0156  -1.3442   0.0000   0.0000   0.0000   0.6153
  -2.900   0.5756   0.00873   0.00209  -0.2041  0.2212  0.0159  -1.2756   0.0000   0.0000   0.0000   0.6080
  -2.800   0.5872   0.00874   0.00210  -0.2042  0.2207  0.0161  -1.2096   0.0000   0.0000   0.0000   0.6009
  -2.700   0.5988   0.00874   0.00211  -0.2043  0.2201  0.0162  -1.1478   0.0000   0.0000   0.0000   0.5940
  -2.600   0.6105   0.00875   0.00211  -0.2044  0.2194  0.0163  -1.0913   0.0000   0.0000   0.0000   0.5874
  -2.500   0.6223   0.00875   0.00211  -0.2045  0.2184  0.0163  -1.0421   0.0000   0.0000   0.0000   0.5811
  -2.400   0.6343   0.00873   0.00208  -0.2047  0.2177  0.0162  -1.0104   0.0000   0.0000   0.0000   0.5749
  -2.300   0.6431   0.00901   0.00216  -0.2042  0.1750  0.0157  -1.0060   0.0000   0.0000   0.0000   0.5696
  -2.200   0.6546   0.00903   0.00217  -0.2043  0.1711  0.0159  -0.9497   0.0000   0.0000   0.0000   0.5639
  -2.100   0.6662   0.00904   0.00218  -0.2044  0.1701  0.0160  -0.9254   0.0000   0.0000   0.0000   0.5584
  -2.000   0.6778   0.00905   0.00219  -0.2045  0.1698  0.0162  -0.9342   0.0000   0.0000   0.0000   0.5531
  -1.900   0.6894   0.00906   0.00220  -0.2046  0.1694  0.0163  -0.9429   0.0000   0.0000   0.0000   0.5480
  -1.800   0.7011   0.00907   0.00220  -0.2046  0.1690  0.0164  -0.9517   0.0000   0.0000   0.0000   0.5430
  -1.700   0.7127   0.00908   0.00221  -0.2047  0.1686  0.0165  -0.9605   0.0000   0.0000   0.0000   0.5382
  -1.600   0.7243   0.00909   0.00222  -0.2048  0.1681  0.0166  -0.9705   0.0000   0.0000   0.0000   0.5335
  -1.500   0.7359   0.00911   0.00223  -0.2049  0.1676  0.0166  -0.9808   0.0000   0.0000   0.0000   0.5290
  -1.400   0.7475   0.00912   0.00224  -0.2050  0.1668  0.0167  -0.9912   0.0000   0.0000   0.0000   0.5246
  -1.300   0.7591   0.00914   0.00225  -0.2051  0.1660  0.0167  -1.0016   0.0000   0.0000   0.0000   0.5204
  -1.200   0.7707   0.00915   0.00226  -0.2052  0.1657  0.0168  -1.0119   0.0000   0.0000   0.0000   0.5162
  -1.100   0.7807   0.00930   0.00234  -0.2050  0.1472  0.0168  -1.0220   0.0000   0.0000   0.0000   0.5124
  -1.000   0.7921   0.00933   0.00236  -0.2050  0.1450  0.0169  -1.0324   0.0000   0.0000   0.0000   0.5085
  -0.900   0.8035   0.00936   0.00238  -0.2051  0.1434  0.0169  -1.0427   0.0000   0.0000   0.0000   0.5047
  -0.800   0.8149   0.00939   0.00240  -0.2051  0.1419  0.0169  -1.0531   0.0000   0.0000   0.0000   0.5011
  -0.700   0.8262   0.00942   0.00242  -0.2051  0.1401  0.0169  -1.0634   0.0000   0.0000   0.0000   0.4975
  -0.600   0.8374   0.00947   0.00244  -0.2051  0.1370  0.0170  -1.0736   0.0000   0.0000   0.0000   0.4940
  -0.100   0.8942   0.00962   0.00253  -0.2054  0.1241  0.0187  -1.1253   0.0000   0.0000   0.0000   0.4780
   0.000   0.9056   0.00964   0.00255  -0.2054  0.1239  0.0187  -1.1357   0.0000   0.0000   0.0000   0.4750


