xflr5 v6.59

 Calculated polar for: WORTMANN FX 63-137 AIRFOIL

 1 1 Reynolds number fixed          Mach number fixed         

 xtrf =   1.000 (top)        1.000 (bottom)
 Mach =   0.000     Re =     4.600 e 6     Ncrit =   9.000

  alpha     CL        CD       CDp       Cm    Top Xtr Bot Xtr   Cpmin    Chinge    XCp    
 ------- -------- --------- --------- -------- ------- ------- -------- --------- ---------
 -15.700  -0.1825   0.14336   0.14097  -0.0932  0.6804  0.0034  -3.3842   0.0000   0.0000   0.0000  -0.3271
 -15.600  -0.1791   0.14228   0.13988  -0.0937  0.6776  0.0034  -3.3517   0.0000   0.0000   0.0000  -0.3407
 -15.500  -0.1757   0.14120   0.13879  -0.0943  0.6747  0.0035  -3.3196   0.0000   0.0000   0.0000  -0.3548
 -15.400  -0.1723   0.14012   0.13770  -0.0948  0.6718  0.0036  -3.2879   0.0000   0.0000   0.0000  -0.3694
 -15.300  -0.1689   0.13903   0.13660  -0.0954  0.6689  0.0036  -3.2567   0.0000   0.0000   0.0000  -0.3847
 -15.200  -0.1655   0.13794   0.13549  -0.0959  0.6655  0.0037  -3.2260   0.0000   0.0000   0.0000  -0.4006
 -15.100  -0.1621   0.13683   0.13438  -0.0965  0.6626  0.0037  -3.1965   0.0000   0.0000   0.0000  -0.4171
 -15.000  -0.1594   0.13582   0.13327  -0.0969  0.6397  0.0038  -3.1716   0.0000   0.0000   0.0000  -0.4302
 -14.900  -0.1568   0.13488   0.13222  -0.0972  0.6129  0.0038  -3.1433   0.0000   0.0000   0.0000  -0.4429
 -14.800  -0.1538   0.13385   0.13114  -0.0976  0.5971  0.0039  -3.1144   0.0000   0.0000   0.0000  -0.4588
 -14.600  -0.4756   0.06450   0.06220  -0.1324  0.7366  0.0045  -9.8637   0.0000   0.0000   0.0000  -0.0629
 -14.500  -0.4794   0.06235   0.06004  -0.1338  0.7342  0.0045  -9.9095   0.0000   0.0000   0.0000  -0.0631
 -14.400  -0.4836   0.06007   0.05774  -0.1353  0.7317  0.0045  -9.9595   0.0000   0.0000   0.0000  -0.0634
 -14.300  -0.4890   0.05749   0.05514  -0.1371  0.7299  0.0045  -10.0327   0.0000   0.0000   0.0000  -0.0633
 -14.200  -0.4952   0.05477   0.05240  -0.1390  0.7284  0.0045  -10.1161   0.0000   0.0000   0.0000  -0.0632
 -14.100  -0.5016   0.05195   0.04956  -0.1412  0.7269  0.0045  -10.2020   0.0000   0.0000   0.0000  -0.0631
 -14.000  -0.5088   0.04914   0.04672  -0.1433  0.7256  0.0045  -10.2941   0.0000   0.0000   0.0000  -0.0628
 -13.900  -0.5159   0.04631   0.04386  -0.1457  0.7241  0.0045  -10.3818   0.0000   0.0000   0.0000  -0.0628
 -13.800  -0.5234   0.04348   0.04099  -0.1481  0.7229  0.0045  -10.4744   0.0000   0.0000   0.0000  -0.0626
 -13.700  -0.5311   0.04069   0.03816  -0.1506  0.7217  0.0045  -10.5630   0.0000   0.0000   0.0000  -0.0626
 -13.600  -0.5392   0.03796   0.03539  -0.1531  0.7209  0.0045  -10.6549   0.0000   0.0000   0.0000  -0.0622
 -13.500  -0.5475   0.03525   0.03263  -0.1557  0.7207  0.0045  -10.7461   0.0000   0.0000   0.0000  -0.0618
 -13.400  -0.5562   0.03260   0.02992  -0.1583  0.7204  0.0045  -10.8399   0.0000   0.0000   0.0000  -0.0612
 -13.300  -0.5653   0.03001   0.02726  -0.1608  0.7200  0.0045  -10.9347   0.0000   0.0000   0.0000  -0.0602
 -13.200  -0.5750   0.02758   0.02475  -0.1629  0.7197  0.0045  -11.0297   0.0000   0.0000   0.0000  -0.0583
 -13.100  -0.5852   0.02518   0.02227  -0.1652  0.7192  0.0045  -11.1321   0.0000   0.0000   0.0000  -0.0565
  -7.500   0.0364   0.00879   0.00274  -0.1993  0.3486  0.0063  -4.1582   0.0000   0.0000   0.0000   5.8852
  -7.400   0.0484   0.00876   0.00269  -0.1994  0.3436  0.0063  -4.0822   0.0000   0.0000   0.0000   4.4956
  -7.300   0.0604   0.00873   0.00265  -0.1996  0.3397  0.0062  -4.0065   0.0000   0.0000   0.0000   3.6525
  -7.200   0.0725   0.00869   0.00260  -0.1998  0.3386  0.0062  -3.9310   0.0000   0.0000   0.0000   3.0875
  -7.100   0.0845   0.00865   0.00256  -0.2000  0.3378  0.0062  -3.8559   0.0000   0.0000   0.0000   2.6840
  -7.000   0.0965   0.00862   0.00252  -0.2001  0.3370  0.0061  -3.7812   0.0000   0.0000   0.0000   2.3815
  -6.900   0.1086   0.00859   0.00247  -0.2003  0.3368  0.0061  -3.7065   0.0000   0.0000   0.0000   2.1456
  -6.800   0.1206   0.00856   0.00244  -0.2005  0.3357  0.0060  -3.6328   0.0000   0.0000   0.0000   1.9575
  -6.700   0.1326   0.00853   0.00240  -0.2006  0.3350  0.0060  -3.5593   0.0000   0.0000   0.0000   1.8035
  -6.600   0.1446   0.00850   0.00237  -0.2008  0.3347  0.0060  -3.4863   0.0000   0.0000   0.0000   1.6748
  -6.500   0.1553   0.00858   0.00238  -0.2007  0.3144  0.0059  -3.4182   0.0000   0.0000   0.0000   1.5758
  -6.400   0.1669   0.00858   0.00236  -0.2008  0.3063  0.0059  -3.3472   0.0000   0.0000   0.0000   1.4837
  -6.300   0.1786   0.00858   0.00234  -0.2009  0.3024  0.0058  -3.2757   0.0000   0.0000   0.0000   1.4028
  -6.200   0.1903   0.00858   0.00232  -0.2010  0.2986  0.0058  -3.2043   0.0000   0.0000   0.0000   1.3322
  -6.100   0.2019   0.00859   0.00231  -0.2011  0.2947  0.0058  -3.1328   0.0000   0.0000   0.0000   1.2699
  -6.000   0.2136   0.00859   0.00230  -0.2012  0.2907  0.0058  -3.0605   0.0000   0.0000   0.0000   1.2142
  -5.900   0.2253   0.00859   0.00229  -0.2013  0.2865  0.0058  -2.9868   0.0000   0.0000   0.0000   1.1641
  -5.800   0.2371   0.00859   0.00228  -0.2014  0.2820  0.0058  -2.9113   0.0000   0.0000   0.0000   1.1189
  -5.700   0.2488   0.00858   0.00227  -0.2015  0.2788  0.0057  -2.8319   0.0000   0.0000   0.0000   1.0779
  -5.600   0.2590   0.00871   0.00248  -0.2013  0.2782  0.0057  -2.6527   0.0000   0.0000   0.0000   1.0441
  -5.500   0.2709   0.00869   0.00247  -0.2014  0.2775  0.0057  -2.5842   0.0000   0.0000   0.0000   1.0094
  -5.400   0.2828   0.00868   0.00245  -0.2016  0.2768  0.0056  -2.5184   0.0000   0.0000   0.0000   0.9777
  -5.300   0.2947   0.00866   0.00243  -0.2017  0.2758  0.0056  -2.4550   0.0000   0.0000   0.0000   0.9485
  -5.200   0.3066   0.00864   0.00241  -0.2018  0.2750  0.0055  -2.3934   0.0000   0.0000   0.0000   0.9215
  -5.100   0.3187   0.00861   0.00239  -0.2020  0.2747  0.0055  -2.3333   0.0000   0.0000   0.0000   0.8964
  -5.000   0.3293   0.00870   0.00241  -0.2019  0.2554  0.0054  -2.2785   0.0000   0.0000   0.0000   0.8750
  -4.900   0.3410   0.00871   0.00239  -0.2020  0.2481  0.0054  -2.2224   0.0000   0.0000   0.0000   0.8537
  -4.800   0.3528   0.00871   0.00236  -0.2022  0.2451  0.0054  -2.1672   0.0000   0.0000   0.0000   0.8336
  -4.700   0.3645   0.00870   0.00234  -0.2023  0.2422  0.0053  -2.1134   0.0000   0.0000   0.0000   0.8148
  -4.600   0.3763   0.00870   0.00231  -0.2024  0.2393  0.0053  -2.0610   0.0000   0.0000   0.0000   0.7972
  -4.500   0.3881   0.00870   0.00229  -0.2025  0.2363  0.0052  -2.0100   0.0000   0.0000   0.0000   0.7807
  -4.400   0.4000   0.00869   0.00225  -0.2027  0.2328  0.0052  -1.9612   0.0000   0.0000   0.0000   0.7650
  -4.300   0.4119   0.00868   0.00222  -0.2028  0.2297  0.0051  -1.9127   0.0000   0.0000   0.0000   0.7503
  -4.200   0.4239   0.00866   0.00220  -0.2030  0.2262  0.0051  -1.8659   0.0000   0.0000   0.0000   0.7363
  -4.100   0.4359   0.00865   0.00217  -0.2031  0.2233  0.0051  -1.8214   0.0000   0.0000   0.0000   0.7230
  -4.000   0.4485   0.00859   0.00208  -0.2034  0.2220  0.0051  -1.8226   0.0000   0.0000   0.0000   0.7102
  -3.900   0.4605   0.00857   0.00205  -0.2035  0.2216  0.0050  -1.7864   0.0000   0.0000   0.0000   0.6983
  -3.800   0.4725   0.00856   0.00204  -0.2037  0.2211  0.0050  -1.7443   0.0000   0.0000   0.0000   0.6870
  -3.700   0.4844   0.00855   0.00202  -0.2038  0.2206  0.0050  -1.7013   0.0000   0.0000   0.0000   0.6764
  -3.600   0.4964   0.00854   0.00201  -0.2040  0.2201  0.0051  -1.6596   0.0000   0.0000   0.0000   0.6662
  -3.500   0.5092   0.00846   0.00199  -0.2043  0.2194  0.0135  -1.6823   0.0000   0.0000   0.0000   0.6563
  -3.400   0.5209   0.00847   0.00199  -0.2044  0.2184  0.0141  -1.6202   0.0000   0.0000   0.0000   0.6471
  -3.300   0.5327   0.00846   0.00199  -0.2046  0.2181  0.0145  -1.5584   0.0000   0.0000   0.0000   0.6384
  -3.100   0.5546   0.00860   0.00205  -0.2045  0.1955  0.0150  -1.4393   0.0000   0.0000   0.0000   0.6226
  -3.000   0.5662   0.00862   0.00206  -0.2046  0.1935  0.0152  -1.3777   0.0000   0.0000   0.0000   0.6149
  -2.900   0.5777   0.00864   0.00207  -0.2046  0.1915  0.0154  -1.3159   0.0000   0.0000   0.0000   0.6076
  -2.800   0.5892   0.00866   0.00208  -0.2047  0.1895  0.0156  -1.2546   0.0000   0.0000   0.0000   0.6005
  -2.700   0.6007   0.00869   0.00209  -0.2048  0.1876  0.0157  -1.1949   0.0000   0.0000   0.0000   0.5938
  -2.600   0.6122   0.00871   0.00210  -0.2048  0.1856  0.0158  -1.1385   0.0000   0.0000   0.0000   0.5873
  -2.500   0.6238   0.00873   0.00210  -0.2049  0.1837  0.0159  -1.0882   0.0000   0.0000   0.0000   0.5809
  -2.400   0.6354   0.00874   0.00209  -0.2050  0.1800  0.0157  -1.0514   0.0000   0.0000   0.0000   0.5748
  -2.300   0.6468   0.00878   0.00209  -0.2050  0.1679  0.0154  -1.0208   0.0000   0.0000   0.0000   0.5690
  -2.200   0.6585   0.00879   0.00210  -0.2051  0.1672  0.0155  -0.9675   0.0000   0.0000   0.0000   0.5633
  -2.100   0.6701   0.00880   0.00211  -0.2052  0.1663  0.0156  -0.9279   0.0000   0.0000   0.0000   0.5579
  -2.000   0.6817   0.00881   0.00211  -0.2053  0.1661  0.0158  -0.9367   0.0000   0.0000   0.0000   0.5526
  -1.900   0.6920   0.00894   0.00218  -0.2052  0.1489  0.0159  -0.9447   0.0000   0.0000   0.0000   0.5477
  -1.800   0.7034   0.00897   0.00220  -0.2052  0.1453  0.0160  -0.9533   0.0000   0.0000   0.0000   0.5428
  -1.700   0.7149   0.00899   0.00221  -0.2053  0.1437  0.0161  -0.9629   0.0000   0.0000   0.0000   0.5380
  -1.600   0.7263   0.00902   0.00223  -0.2053  0.1422  0.0162  -0.9731   0.0000   0.0000   0.0000   0.5334
  -1.500   0.7378   0.00905   0.00224  -0.2054  0.1407  0.0163  -0.9834   0.0000   0.0000   0.0000   0.5289
  -1.400   0.7492   0.00907   0.00226  -0.2054  0.1392  0.0164  -0.9936   0.0000   0.0000   0.0000   0.5245
  -1.300   0.7606   0.00910   0.00227  -0.2055  0.1377  0.0164  -1.0039   0.0000   0.0000   0.0000   0.5203
  -1.200   0.7721   0.00913   0.00229  -0.2055  0.1362  0.0165  -1.0142   0.0000   0.0000   0.0000   0.5162
  -1.100   0.7836   0.00915   0.00230  -0.2056  0.1347  0.0165  -1.0245   0.0000   0.0000   0.0000   0.5122
  -1.000   0.7950   0.00917   0.00232  -0.2057  0.1332  0.0166  -1.0348   0.0000   0.0000   0.0000   0.5084
  -0.900   0.8065   0.00919   0.00233  -0.2057  0.1315  0.0166  -1.0451   0.0000   0.0000   0.0000   0.5046
  -0.800   0.8180   0.00921   0.00235  -0.2058  0.1297  0.0167  -1.0555   0.0000   0.0000   0.0000   0.5009
  -0.700   0.8295   0.00924   0.00237  -0.2058  0.1265  0.0167  -1.0658   0.0000   0.0000   0.0000   0.4974
  -0.600   0.8409   0.00926   0.00239  -0.2059  0.1241  0.0167  -1.0761   0.0000   0.0000   0.0000   0.4939
  -0.500   0.8524   0.00928   0.00240  -0.2059  0.1236  0.0167  -1.0865   0.0000   0.0000   0.0000   0.4905
  -0.400   0.8639   0.00930   0.00242  -0.2060  0.1233  0.0168  -1.0969   0.0000   0.0000   0.0000   0.4872
  -0.300   0.8753   0.00932   0.00244  -0.2061  0.1231  0.0169  -1.1074   0.0000   0.0000   0.0000   0.4840
  -0.200   0.8868   0.00934   0.00246  -0.2061  0.1228  0.0171  -1.1178   0.0000   0.0000   0.0000   0.4809


