xflr5 v6.59

 Calculated polar for: WORTMANN FX 63-137 AIRFOIL

 1 1 Reynolds number fixed          Mach number fixed         

 xtrf =   1.000 (top)        1.000 (bottom)
 Mach =   0.000     Re =     4.400 e 6     Ncrit =   9.000

  alpha     CL        CD       CDp       Cm    Top Xtr Bot Xtr   Cpmin    Chinge    XCp    
 ------- -------- --------- --------- -------- ------- ------- -------- --------- ---------
 -15.300  -0.6552   0.04520   0.04283  -0.1479  0.8574  0.0043  -13.0629   0.0000   0.0000   0.0000  -0.0050
 -15.100  -0.6750   0.03925   0.03670  -0.1534  0.8404  0.0043  -13.3115   0.0000   0.0000   0.0000  -0.0051
 -15.000  -0.6814   0.03696   0.03433  -0.1555  0.8296  0.0043  -13.3712   0.0000   0.0000   0.0000  -0.0055
 -14.900  -0.6829   0.03542   0.03273  -0.1569  0.8210  0.0043  -13.3529   0.0000   0.0000   0.0000  -0.0067
 -14.800  -0.6859   0.03371   0.03095  -0.1584  0.8084  0.0043  -13.3549   0.0000   0.0000   0.0000  -0.0075
 -14.700  -0.6859   0.03244   0.02962  -0.1595  0.8000  0.0043  -13.3112   0.0000   0.0000   0.0000  -0.0087
 -14.600  -0.6869   0.03098   0.02812  -0.1609  0.7943  0.0044  -13.2820   0.0000   0.0000   0.0000  -0.0100
 -14.500  -0.6858   0.02989   0.02698  -0.1618  0.7879  0.0044  -13.2206   0.0000   0.0000   0.0000  -0.0114
 -14.400  -0.6861   0.02860   0.02564  -0.1630  0.7810  0.0044  -13.1780   0.0000   0.0000   0.0000  -0.0127
 -14.300  -0.6868   0.02732   0.02430  -0.1640  0.7756  0.0044  -13.1431   0.0000   0.0000   0.0000  -0.0135
 -14.200  -0.6854   0.02631   0.02327  -0.1648  0.7723  0.0044  -13.0718   0.0000   0.0000   0.0000  -0.0149
 -14.100  -0.6830   0.02559   0.02251  -0.1652  0.7661  0.0044  -12.9823   0.0000   0.0000   0.0000  -0.0160
 -14.000  -0.6811   0.02481   0.02169  -0.1657  0.7575  0.0044  -12.9013   0.0000   0.0000   0.0000  -0.0172
 -13.900  -0.6754   0.02415   0.02099  -0.1665  0.7493  0.0044  -12.7800   0.0000   0.0000   0.0000  -0.0203
 -13.800  -0.6685   0.02355   0.02038  -0.1674  0.7460  0.0044  -12.6442   0.0000   0.0000   0.0000  -0.0240
 -13.700  -0.6609   0.02296   0.01977  -0.1684  0.7430  0.0044  -12.5033   0.0000   0.0000   0.0000  -0.0283
 -13.600  -0.6524   0.02253   0.01934  -0.1691  0.7401  0.0044  -12.3469   0.0000   0.0000   0.0000  -0.0327
 -13.500  -0.6431   0.02223   0.01904  -0.1697  0.7377  0.0044  -12.1780   0.0000   0.0000   0.0000  -0.0373
 -13.400  -0.6328   0.02212   0.01895  -0.1699  0.7352  0.0045  -11.9921   0.0000   0.0000   0.0000  -0.0420
 -13.300  -0.6205   0.02250   0.01938  -0.1693  0.7328  0.0045  -11.7649   0.0000   0.0000   0.0000  -0.0464
  -7.700   0.0127   0.00885   0.00285  -0.1989  0.3695  0.0063  -4.3090   0.0000   0.0000   0.0000  16.4431
  -7.600   0.0245   0.00882   0.00280  -0.1990  0.3650  0.0063  -4.2327   0.0000   0.0000   0.0000   8.6201
  -7.500   0.0363   0.00880   0.00276  -0.1992  0.3607  0.0063  -4.1570   0.0000   0.0000   0.0000   5.9032
  -7.400   0.0481   0.00878   0.00271  -0.1993  0.3564  0.0062  -4.0818   0.0000   0.0000   0.0000   4.5215
  -7.300   0.0598   0.00877   0.00267  -0.1994  0.3519  0.0062  -4.0069   0.0000   0.0000   0.0000   3.6812
  -7.200   0.0717   0.00874   0.00263  -0.1996  0.3472  0.0061  -3.9322   0.0000   0.0000   0.0000   3.1138
  -7.100   0.0837   0.00871   0.00259  -0.1997  0.3422  0.0061  -3.8576   0.0000   0.0000   0.0000   2.7060
  -7.000   0.0957   0.00868   0.00255  -0.1999  0.3391  0.0061  -3.7830   0.0000   0.0000   0.0000   2.3985
  -6.900   0.1077   0.00865   0.00250  -0.2001  0.3390  0.0060  -3.7084   0.0000   0.0000   0.0000   2.1587
  -6.800   0.1198   0.00861   0.00246  -0.2003  0.3383  0.0060  -3.6346   0.0000   0.0000   0.0000   1.9677
  -6.700   0.1318   0.00858   0.00243  -0.2004  0.3376  0.0060  -3.5613   0.0000   0.0000   0.0000   1.8116
  -6.600   0.1438   0.00856   0.00239  -0.2006  0.3367  0.0059  -3.4885   0.0000   0.0000   0.0000   1.6818
  -6.500   0.1557   0.00853   0.00236  -0.2007  0.3354  0.0059  -3.4161   0.0000   0.0000   0.0000   1.5722
  -6.400   0.1677   0.00851   0.00233  -0.2009  0.3348  0.0058  -3.3437   0.0000   0.0000   0.0000   1.4781
  -6.300   0.1797   0.00848   0.00231  -0.2010  0.3338  0.0058  -3.2715   0.0000   0.0000   0.0000   1.3968
  -6.200   0.1901   0.00859   0.00233  -0.2009  0.3097  0.0058  -3.2043   0.0000   0.0000   0.0000   1.3328
  -6.100   0.2018   0.00859   0.00231  -0.2010  0.3050  0.0058  -3.1327   0.0000   0.0000   0.0000   1.2701
  -6.000   0.2134   0.00859   0.00230  -0.2011  0.3011  0.0058  -3.0610   0.0000   0.0000   0.0000   1.2145
  -5.900   0.2250   0.00860   0.00229  -0.2012  0.2972  0.0058  -2.9885   0.0000   0.0000   0.0000   1.1648
  -5.800   0.2366   0.00861   0.00228  -0.2013  0.2932  0.0058  -2.9150   0.0000   0.0000   0.0000   1.1199
  -5.700   0.2482   0.00862   0.00228  -0.2013  0.2891  0.0057  -2.8399   0.0000   0.0000   0.0000   1.0792
  -5.600   0.2599   0.00862   0.00228  -0.2014  0.2849  0.0057  -2.7592   0.0000   0.0000   0.0000   1.0420
  -5.500   0.2702   0.00874   0.00247  -0.2012  0.2806  0.0057  -2.5937   0.0000   0.0000   0.0000   1.0108
  -5.400   0.2820   0.00872   0.00245  -0.2014  0.2786  0.0056  -2.5270   0.0000   0.0000   0.0000   0.9790
  -5.300   0.2940   0.00870   0.00243  -0.2015  0.2779  0.0056  -2.4626   0.0000   0.0000   0.0000   0.9496
  -5.200   0.3059   0.00869   0.00241  -0.2017  0.2772  0.0055  -2.4002   0.0000   0.0000   0.0000   0.9225
  -5.100   0.3179   0.00867   0.00239  -0.2018  0.2763  0.0055  -2.3397   0.0000   0.0000   0.0000   0.8974
  -5.000   0.3298   0.00865   0.00237  -0.2020  0.2751  0.0054  -2.2808   0.0000   0.0000   0.0000   0.8742
  -4.900   0.3418   0.00862   0.00234  -0.2021  0.2748  0.0054  -2.2233   0.0000   0.0000   0.0000   0.8524
  -4.700   0.3642   0.00871   0.00234  -0.2022  0.2496  0.0053  -2.1166   0.0000   0.0000   0.0000   0.8150
  -4.600   0.3760   0.00871   0.00231  -0.2023  0.2466  0.0053  -2.0638   0.0000   0.0000   0.0000   0.7974
  -4.500   0.3878   0.00871   0.00229  -0.2024  0.2436  0.0053  -2.0124   0.0000   0.0000   0.0000   0.7808
  -4.400   0.3996   0.00871   0.00225  -0.2025  0.2403  0.0052  -1.9635   0.0000   0.0000   0.0000   0.7652
  -4.300   0.4114   0.00871   0.00223  -0.2027  0.2373  0.0052  -1.9150   0.0000   0.0000   0.0000   0.7506
  -4.200   0.4232   0.00870   0.00220  -0.2028  0.2343  0.0052  -1.8682   0.0000   0.0000   0.0000   0.7367
  -4.100   0.4351   0.00869   0.00217  -0.2029  0.2312  0.0051  -1.8235   0.0000   0.0000   0.0000   0.7234
  -4.000   0.4476   0.00865   0.00209  -0.2032  0.2277  0.0051  -1.8223   0.0000   0.0000   0.0000   0.7106
  -3.900   0.4596   0.00863   0.00207  -0.2033  0.2246  0.0051  -1.7873   0.0000   0.0000   0.0000   0.6987
  -3.800   0.4716   0.00862   0.00205  -0.2035  0.2222  0.0051  -1.7458   0.0000   0.0000   0.0000   0.6874
  -3.700   0.4835   0.00861   0.00204  -0.2036  0.2218  0.0051  -1.7034   0.0000   0.0000   0.0000   0.6767
  -3.600   0.4954   0.00860   0.00203  -0.2037  0.2213  0.0052  -1.6632   0.0000   0.0000   0.0000   0.6666
  -3.500   0.5082   0.00852   0.00200  -0.2041  0.2208  0.0137  -1.6815   0.0000   0.0000   0.0000   0.6566
  -3.400   0.5200   0.00852   0.00200  -0.2042  0.2203  0.0142  -1.6189   0.0000   0.0000   0.0000   0.6474
  -3.300   0.5318   0.00852   0.00200  -0.2043  0.2197  0.0146  -1.5565   0.0000   0.0000   0.0000   0.6387
  -3.200   0.5435   0.00853   0.00200  -0.2044  0.2189  0.0148  -1.4939   0.0000   0.0000   0.0000   0.6303
  -3.100   0.5552   0.00853   0.00201  -0.2045  0.2181  0.0151  -1.4308   0.0000   0.0000   0.0000   0.6223
  -3.000   0.5669   0.00854   0.00201  -0.2046  0.2178  0.0153  -1.3672   0.0000   0.0000   0.0000   0.6146
  -2.900   0.5772   0.00866   0.00207  -0.2045  0.1999  0.0155  -1.3073   0.0000   0.0000   0.0000   0.6077
  -2.800   0.5885   0.00870   0.00209  -0.2045  0.1943  0.0157  -1.2449   0.0000   0.0000   0.0000   0.6007
  -2.700   0.6000   0.00872   0.00210  -0.2046  0.1923  0.0159  -1.1839   0.0000   0.0000   0.0000   0.5939
  -2.600   0.6115   0.00874   0.00211  -0.2047  0.1903  0.0160  -1.1270   0.0000   0.0000   0.0000   0.5874
  -2.500   0.6231   0.00876   0.00211  -0.2047  0.1883  0.0160  -1.0771   0.0000   0.0000   0.0000   0.5811
  -2.400   0.6347   0.00877   0.00211  -0.2048  0.1857  0.0158  -1.0423   0.0000   0.0000   0.0000   0.5749
  -2.300   0.6458   0.00884   0.00211  -0.2048  0.1689  0.0154  -1.0182   0.0000   0.0000   0.0000   0.5692
  -2.200   0.6575   0.00885   0.00212  -0.2049  0.1684  0.0156  -0.9642   0.0000   0.0000   0.0000   0.5635
  -2.100   0.6691   0.00886   0.00212  -0.2050  0.1678  0.0157  -0.9273   0.0000   0.0000   0.0000   0.5580
  -2.000   0.6807   0.00887   0.00213  -0.2051  0.1671  0.0159  -0.9360   0.0000   0.0000   0.0000   0.5527
  -1.900   0.6923   0.00889   0.00214  -0.2052  0.1663  0.0160  -0.9448   0.0000   0.0000   0.0000   0.5476
  -1.800   0.7039   0.00890   0.00215  -0.2053  0.1661  0.0161  -0.9536   0.0000   0.0000   0.0000   0.5426
  -1.700   0.7143   0.00902   0.00222  -0.2051  0.1502  0.0162  -0.9622   0.0000   0.0000   0.0000   0.5380
  -1.600   0.7256   0.00906   0.00224  -0.2051  0.1454  0.0163  -0.9724   0.0000   0.0000   0.0000   0.5334
  -1.500   0.7370   0.00909   0.00225  -0.2052  0.1439  0.0164  -0.9827   0.0000   0.0000   0.0000   0.5289
  -1.400   0.7485   0.00911   0.00227  -0.2053  0.1423  0.0165  -0.9930   0.0000   0.0000   0.0000   0.5246
  -1.300   0.7599   0.00914   0.00229  -0.2053  0.1408  0.0165  -1.0033   0.0000   0.0000   0.0000   0.5204
  -1.200   0.7713   0.00917   0.00230  -0.2054  0.1393  0.0166  -1.0136   0.0000   0.0000   0.0000   0.5163
  -1.100   0.7827   0.00920   0.00232  -0.2054  0.1378  0.0166  -1.0239   0.0000   0.0000   0.0000   0.5123
  -1.000   0.7941   0.00922   0.00233  -0.2055  0.1363  0.0167  -1.0341   0.0000   0.0000   0.0000   0.5084
  -0.900   0.8056   0.00925   0.00235  -0.2055  0.1348  0.0167  -1.0445   0.0000   0.0000   0.0000   0.5046
  -0.800   0.8171   0.00927   0.00236  -0.2056  0.1332  0.0167  -1.0548   0.0000   0.0000   0.0000   0.5010
  -0.700   0.8285   0.00930   0.00238  -0.2056  0.1303  0.0167  -1.0651   0.0000   0.0000   0.0000   0.4974
  -0.600   0.8399   0.00933   0.00240  -0.2057  0.1264  0.0168  -1.0754   0.0000   0.0000   0.0000   0.4939
  -0.500   0.8513   0.00935   0.00242  -0.2057  0.1240  0.0168  -1.0858   0.0000   0.0000   0.0000   0.4906
  -0.400   0.8628   0.00937   0.00244  -0.2058  0.1237  0.0169  -1.0962   0.0000   0.0000   0.0000   0.4873
  -0.300   0.8743   0.00939   0.00245  -0.2059  0.1235  0.0171  -1.1066   0.0000   0.0000   0.0000   0.4841
   0.000   0.9087   0.00945   0.00250  -0.2061  0.1226  0.0184  -1.1379   0.0000   0.0000   0.0000   0.4749


