xflr5 v6.59

 Calculated polar for: WORTMANN FX 63-137 AIRFOIL

 1 1 Reynolds number fixed          Mach number fixed         

 xtrf =   1.000 (top)        1.000 (bottom)
 Mach =   0.000     Re =     2.300 e 6     Ncrit =   9.000

  alpha     CL        CD       CDp       Cm    Top Xtr Bot Xtr   Cpmin    Chinge    XCp    
 ------- -------- --------- --------- -------- ------- ------- -------- --------- ---------
 -15.500  -0.2336   0.16503   0.16370  -0.0592  0.9682  0.0045  -1.5781   0.0000   0.0000   0.0000  -0.0464
 -15.400  -0.2195   0.16211   0.16076  -0.0637  0.9636  0.0045  -1.5832   0.0000   0.0000   0.0000  -0.0863
 -15.300  -0.2046   0.15912   0.15774  -0.0685  0.9605  0.0045  -1.5891   0.0000   0.0000   0.0000  -0.1344
 -15.200  -0.1894   0.15611   0.15470  -0.0734  0.9570  0.0045  -1.5961   0.0000   0.0000   0.0000  -0.1921
 -15.100  -0.1738   0.15309   0.15165  -0.0785  0.9526  0.0045  -1.6045   0.0000   0.0000   0.0000  -0.2614
 -15.000  -0.1581   0.15008   0.14859  -0.0837  0.9478  0.0045  -1.6153   0.0000   0.0000   0.0000  -0.3459
 -14.900  -0.1438   0.14726   0.14573  -0.0885  0.9426  0.0045  -1.6297   0.0000   0.0000   0.0000  -0.4386
 -14.800  -0.1296   0.14433   0.14272  -0.0932  0.9317  0.0045  -1.6533   0.0000   0.0000   0.0000  -0.5512
 -13.700  -0.3155   0.09287   0.09142  -0.0991  0.9535  0.0072  -6.2220   0.0000   0.0000   0.0000  -0.1039
 -13.500  -0.6439   0.04221   0.04026  -0.1231  0.9791  0.0066  -11.1926   0.0000   0.0000   0.0000   0.0354
 -13.300  -0.6511   0.03594   0.03384  -0.1313  0.9660  0.0066  -11.3249   0.0000   0.0000   0.0000   0.0256
 -13.200  -0.6399   0.03232   0.03009  -0.1395  0.9593  0.0067  -11.2900   0.0000   0.0000   0.0000   0.0093
 -13.100  -0.6149   0.02859   0.02620  -0.1507  0.9506  0.0067  -11.1521   0.0000   0.0000   0.0000  -0.0183
 -13.000  -0.5779   0.02509   0.02248  -0.1639  0.9359  0.0068  -10.9173   0.0000   0.0000   0.0000  -0.0579
 -12.900  -0.5600   0.02325   0.02042  -0.1700  0.9079  0.0068  -10.7709   0.0000   0.0000   0.0000  -0.0782
 -12.800  -0.5547   0.02211   0.01913  -0.1721  0.8862  0.0068  -10.6946   0.0000   0.0000   0.0000  -0.0846
 -12.700  -0.5495   0.02106   0.01796  -0.1738  0.8711  0.0069  -10.6151   0.0000   0.0000   0.0000  -0.0907
 -12.500  -0.1125   0.10029   0.09793  -0.1117  0.7626  0.0083  -3.2139   0.0000   0.0000   0.0000  -0.8323
 -12.300  -0.5147   0.01753   0.01398  -0.1817  0.8240  0.0069  -10.1705   0.0000   0.0000   0.0000  -0.1272
 -12.200  -0.5053   0.01698   0.01333  -0.1826  0.8142  0.0069  -10.0429   0.0000   0.0000   0.0000  -0.1357
 -12.100  -0.4964   0.01651   0.01277  -0.1832  0.8038  0.0069  -9.9171   0.0000   0.0000   0.0000  -0.1435
 -12.000  -0.4861   0.01604   0.01222  -0.1840  0.7984  0.0069  -9.7805   0.0000   0.0000   0.0000  -0.1531
 -11.900  -0.4757   0.01561   0.01171  -0.1847  0.7931  0.0068  -9.6428   0.0000   0.0000   0.0000  -0.1631
 -11.800  -0.4653   0.01521   0.01124  -0.1854  0.7878  0.0068  -9.5046   0.0000   0.0000   0.0000  -0.1732
 -11.700  -0.4549   0.01485   0.01080  -0.1859  0.7820  0.0068  -9.3664   0.0000   0.0000   0.0000  -0.1836
 -11.600  -0.4440   0.01450   0.01038  -0.1864  0.7782  0.0068  -9.2248   0.0000   0.0000   0.0000  -0.1953
 -11.500  -0.4325   0.01415   0.00997  -0.1871  0.7762  0.0068  -9.0789   0.0000   0.0000   0.0000  -0.2081
 -11.400  -0.4210   0.01382   0.00960  -0.1877  0.7740  0.0068  -8.9326   0.0000   0.0000   0.0000  -0.2217
 -11.300  -0.4095   0.01352   0.00924  -0.1882  0.7707  0.0068  -8.7866   0.0000   0.0000   0.0000  -0.2358
 -11.200  -0.3981   0.01325   0.00891  -0.1887  0.7663  0.0068  -8.6416   0.0000   0.0000   0.0000  -0.2505
 -11.100  -0.3870   0.01300   0.00860  -0.1890  0.7605  0.0067  -8.4985   0.0000   0.0000   0.0000  -0.2655
 -11.000  -0.3761   0.01278   0.00831  -0.1893  0.7534  0.0067  -8.3576   0.0000   0.0000   0.0000  -0.2807
 -10.900  -0.3647   0.01256   0.00803  -0.1897  0.7482  0.0067  -8.2139   0.0000   0.0000   0.0000  -0.2978
 -10.800  -0.3531   0.01234   0.00776  -0.1901  0.7446  0.0067  -8.0689   0.0000   0.0000   0.0000  -0.3165
 -10.700  -0.3415   0.01214   0.00750  -0.1904  0.7407  0.0067  -7.9246   0.0000   0.0000   0.0000  -0.3364
 -10.600  -0.3299   0.01195   0.00726  -0.1907  0.7366  0.0066  -7.7814   0.0000   0.0000   0.0000  -0.3574
 -10.500  -0.3185   0.01178   0.00703  -0.1910  0.7323  0.0066  -7.6392   0.0000   0.0000   0.0000  -0.3798
 -10.400  -0.3070   0.01161   0.00681  -0.1913  0.7277  0.0066  -7.4977   0.0000   0.0000   0.0000  -0.4038
 -10.300  -0.2953   0.01145   0.00660  -0.1916  0.7232  0.0066  -7.3561   0.0000   0.0000   0.0000  -0.4301
 -10.200  -0.2834   0.01129   0.00640  -0.1919  0.7207  0.0066  -7.2134   0.0000   0.0000   0.0000  -0.4594
 -10.100  -0.2713   0.01112   0.00620  -0.1923  0.7197  0.0065  -7.0704   0.0000   0.0000   0.0000  -0.4920
 -10.000  -0.2591   0.01096   0.00601  -0.1926  0.7187  0.0065  -6.9283   0.0000   0.0000   0.0000  -0.5276
  -9.900  -0.2470   0.01081   0.00583  -0.1930  0.7176  0.0065  -6.7871   0.0000   0.0000   0.0000  -0.5667
  -9.800  -0.2349   0.01066   0.00566  -0.1933  0.7162  0.0065  -6.6469   0.0000   0.0000   0.0000  -0.6097
  -9.700  -0.2228   0.01052   0.00549  -0.1936  0.7145  0.0065  -6.5078   0.0000   0.0000   0.0000  -0.6573
  -9.600  -0.2107   0.01038   0.00533  -0.1940  0.7121  0.0064  -6.3774   0.0000   0.0000   0.0000  -0.7101
  -9.500  -0.1987   0.01026   0.00517  -0.1942  0.7089  0.0064  -6.2606   0.0000   0.0000   0.0000  -0.7689
  -9.400  -0.1868   0.01014   0.00502  -0.1945  0.7047  0.0064  -6.1454   0.0000   0.0000   0.0000  -0.8344
  -9.300  -0.1752   0.01003   0.00486  -0.1947  0.6986  0.0064  -6.0331   0.0000   0.0000   0.0000  -0.9066
  -9.200  -0.1635   0.00992   0.00471  -0.1949  0.6929  0.0063  -5.9198   0.0000   0.0000   0.0000  -0.9899
  -9.100  -0.1516   0.00980   0.00457  -0.1952  0.6883  0.0063  -5.8057   0.0000   0.0000   0.0000  -1.0886
  -9.000  -0.1397   0.00969   0.00444  -0.1954  0.6832  0.0063  -5.6925   0.0000   0.0000   0.0000  -1.2031
  -8.900  -0.1281   0.00961   0.00431  -0.1956  0.6768  0.0063  -5.5812   0.0000   0.0000   0.0000  -1.3358
  -8.800  -0.1167   0.00954   0.00420  -0.1958  0.6692  0.0063  -5.4717   0.0000   0.0000   0.0000  -1.4913
  -8.700  -0.1051   0.00947   0.00408  -0.1959  0.6608  0.0063  -5.3621   0.0000   0.0000   0.0000  -1.6844
  -8.600  -0.0929   0.00938   0.00397  -0.1962  0.6584  0.0062  -5.2509   0.0000   0.0000   0.0000  -1.9387
  -8.500  -0.0809   0.00929   0.00387  -0.1964  0.6550  0.0062  -5.1410   0.0000   0.0000   0.0000  -2.2667
  -8.400  -0.0691   0.00923   0.00377  -0.1966  0.6477  0.0062  -5.0332   0.0000   0.0000   0.0000  -2.6959
  -8.300  -0.0582   0.00922   0.00368  -0.1966  0.6336  0.0062  -4.9300   0.0000   0.0000   0.0000  -3.2489
  -8.200  -0.0465   0.00917   0.00359  -0.1967  0.6257  0.0062  -4.8245   0.0000   0.0000   0.0000  -4.1246
  -8.100  -0.0346   0.00911   0.00350  -0.1969  0.6213  0.0062  -4.7187   0.0000   0.0000   0.0000  -5.6290
  -8.000  -0.0228   0.00906   0.00342  -0.1971  0.6169  0.0062  -4.6138   0.0000   0.0000   0.0000  -8.6918
  -7.900  -0.0110   0.00901   0.00334  -0.1973  0.6122  0.0061  -4.5102   0.0000   0.0000   0.0000  -18.2713
  -7.800   0.0007   0.00897   0.00326  -0.1974  0.6072  0.0061  -4.4077   0.0000   0.0000   0.0000  281.3113
  -7.700   0.0125   0.00893   0.00319  -0.1976  0.6015  0.0061  -4.3056   0.0000   0.0000   0.0000  16.5366
  -7.600   0.0245   0.00888   0.00311  -0.1978  0.5972  0.0061  -4.2036   0.0000   0.0000   0.0000   8.5750
  -7.500   0.0366   0.00882   0.00304  -0.1980  0.5958  0.0061  -4.1174   0.0000   0.0000   0.0000   5.8215
  -7.400   0.0487   0.00876   0.00297  -0.1982  0.5940  0.0061  -4.0413   0.0000   0.0000   0.0000   4.4405
  -7.300   0.0608   0.00871   0.00291  -0.1984  0.5913  0.0061  -3.9658   0.0000   0.0000   0.0000   3.6117
  -7.200   0.0726   0.00867   0.00285  -0.1985  0.5866  0.0061  -3.8911   0.0000   0.0000   0.0000   3.0627
  -7.100   0.0842   0.00866   0.00279  -0.1986  0.5782  0.0061  -3.8178   0.0000   0.0000   0.0000   2.6771
  -7.000   0.0953   0.00868   0.00275  -0.1987  0.5650  0.0062  -3.7463   0.0000   0.0000   0.0000   2.3943
  -6.900   0.1072   0.00864   0.00268  -0.1988  0.5620  0.0062  -3.6720   0.0000   0.0000   0.0000   2.1563
  -6.800   0.1190   0.00862   0.00264  -0.1990  0.5570  0.0062  -3.5991   0.0000   0.0000   0.0000   1.9681
  -6.700   0.1306   0.00860   0.00259  -0.1991  0.5517  0.0062  -3.5268   0.0000   0.0000   0.0000   1.8146
  -6.600   0.1423   0.00859   0.00255  -0.1992  0.5463  0.0062  -3.4552   0.0000   0.0000   0.0000   1.6869
  -6.500   0.1539   0.00858   0.00251  -0.1993  0.5402  0.0062  -3.3841   0.0000   0.0000   0.0000   1.5786
  -6.400   0.1657   0.00856   0.00247  -0.1994  0.5343  0.0062  -3.3126   0.0000   0.0000   0.0000   1.4843
  -6.300   0.1777   0.00853   0.00243  -0.1996  0.5317  0.0061  -3.2405   0.0000   0.0000   0.0000   1.4014
  -6.200   0.1897   0.00849   0.00239  -0.1998  0.5301  0.0061  -3.1684   0.0000   0.0000   0.0000   1.3289
  -6.100   0.2017   0.00846   0.00235  -0.1999  0.5278  0.0061  -3.0962   0.0000   0.0000   0.0000   1.2653
  -6.000   0.2135   0.00844   0.00232  -0.2001  0.5239  0.0061  -3.0231   0.0000   0.0000   0.0000   1.2093
  -5.900   0.2252   0.00844   0.00230  -0.2002  0.5186  0.0061  -2.9477   0.0000   0.0000   0.0000   1.1597
  -5.800   0.2354   0.00854   0.00232  -0.2000  0.4980  0.0061  -2.8724   0.0000   0.0000   0.0000   1.1190
  -5.700   0.2465   0.00858   0.00236  -0.2000  0.4919  0.0061  -2.7708   0.0000   0.0000   0.0000   1.0795
  -5.600   0.2570   0.00868   0.00249  -0.1999  0.4861  0.0061  -2.6467   0.0000   0.0000   0.0000   1.0447
  -5.500   0.2683   0.00870   0.00249  -0.1999  0.4800  0.0061  -2.5771   0.0000   0.0000   0.0000   1.0110
  -5.400   0.2798   0.00871   0.00248  -0.2000  0.4732  0.0061  -2.5105   0.0000   0.0000   0.0000   0.9798
  -5.300   0.2915   0.00870   0.00246  -0.2001  0.4674  0.0061  -2.4452   0.0000   0.0000   0.0000   0.9505
  -5.200   0.3035   0.00868   0.00243  -0.2003  0.4658  0.0061  -2.3813   0.0000   0.0000   0.0000   0.9232
  -5.100   0.3154   0.00865   0.00241  -0.2004  0.4638  0.0060  -2.3190   0.0000   0.0000   0.0000   0.8979
  -5.000   0.3273   0.00863   0.00238  -0.2006  0.4608  0.0060  -2.2584   0.0000   0.0000   0.0000   0.8746
  -4.900   0.3393   0.00861   0.00235  -0.2008  0.4590  0.0060  -2.1990   0.0000   0.0000   0.0000   0.8528
  -4.800   0.3494   0.00873   0.00237  -0.2006  0.4359  0.0060  -2.1456   0.0000   0.0000   0.0000   0.8345
  -4.700   0.3610   0.00873   0.00235  -0.2007  0.4294  0.0060  -2.0895   0.0000   0.0000   0.0000   0.8158
  -4.600   0.3727   0.00874   0.00232  -0.2008  0.4242  0.0061  -2.0346   0.0000   0.0000   0.0000   0.7982
  -4.500   0.3842   0.00874   0.00230  -0.2009  0.4190  0.0061  -1.9810   0.0000   0.0000   0.0000   0.7817
  -4.400   0.3957   0.00876   0.00227  -0.2010  0.4132  0.0061  -1.9292   0.0000   0.0000   0.0000   0.7662
  -4.300   0.4074   0.00876   0.00225  -0.2011  0.4069  0.0061  -1.8771   0.0000   0.0000   0.0000   0.7515
  -4.200   0.4193   0.00875   0.00223  -0.2012  0.4023  0.0062  -1.8254   0.0000   0.0000   0.0000   0.7374
  -4.100   0.4312   0.00873   0.00220  -0.2014  0.4011  0.0063  -1.7740   0.0000   0.0000   0.0000   0.7240
  -4.000   0.4432   0.00871   0.00218  -0.2015  0.3997  0.0064  -1.7228   0.0000   0.0000   0.0000   0.7114
  -3.900   0.4547   0.00873   0.00220  -0.2016  0.3979  0.0067  -1.6641   0.0000   0.0000   0.0000   0.6997
  -3.800   0.4622   0.00903   0.00256  -0.2007  0.3952  0.0091  -1.5129   0.0000   0.0000   0.0000   0.6903
  -3.700   0.4807   0.00855   0.00199  -0.2024  0.3890  0.0153  -1.7052   0.0000   0.0000   0.0000   0.6766
  -3.600   0.4903   0.00871   0.00208  -0.2021  0.3695  0.0157  -1.6228   0.0000   0.0000   0.0000   0.6674
  -3.500   0.5013   0.00876   0.00214  -0.2021  0.3650  0.0161  -1.5376   0.0000   0.0000   0.0000   0.6580
  -3.400   0.5124   0.00881   0.00219  -0.2021  0.3607  0.0164  -1.4571   0.0000   0.0000   0.0000   0.6491
  -3.300   0.5234   0.00886   0.00225  -0.2021  0.3564  0.0166  -1.3804   0.0000   0.0000   0.0000   0.6405
  -3.200   0.5342   0.00892   0.00233  -0.2020  0.3520  0.0169  -1.3038   0.0000   0.0000   0.0000   0.6323
  -1.700   0.7049   0.00942   0.00230  -0.2029  0.2493  0.0191  -0.9570   0.0000   0.0000   0.0000   0.5387
  -1.600   0.7159   0.00948   0.00232  -0.2029  0.2424  0.0190  -0.9647   0.0000   0.0000   0.0000   0.5341
  -1.500   0.7270   0.00955   0.00234  -0.2029  0.2365  0.0189  -0.9699   0.0000   0.0000   0.0000   0.5296
  -1.400   0.7382   0.00959   0.00234  -0.2029  0.2315  0.0188  -0.9767   0.0000   0.0000   0.0000   0.5252
  -1.300   0.7497   0.00962   0.00234  -0.2029  0.2270  0.0188  -0.9859   0.0000   0.0000   0.0000   0.5209
  -1.200   0.7612   0.00964   0.00235  -0.2030  0.2233  0.0190  -0.9949   0.0000   0.0000   0.0000   0.5167
  -1.100   0.7729   0.00965   0.00234  -0.2031  0.2218  0.0192  -1.0039   0.0000   0.0000   0.0000   0.5126
  -1.000   0.7845   0.00965   0.00234  -0.2032  0.2211  0.0194  -1.0143   0.0000   0.0000   0.0000   0.5087
  -0.900   0.7962   0.00966   0.00234  -0.2033  0.2203  0.0197  -1.0247   0.0000   0.0000   0.0000   0.5049
  -0.800   0.8078   0.00967   0.00235  -0.2034  0.2193  0.0198  -1.0352   0.0000   0.0000   0.0000   0.5011
  -0.700   0.8194   0.00969   0.00235  -0.2035  0.2180  0.0199  -1.0458   0.0000   0.0000   0.0000   0.4975
  -0.600   0.8309   0.00971   0.00237  -0.2035  0.2165  0.0200  -1.0564   0.0000   0.0000   0.0000   0.4940
  -0.500   0.8418   0.00978   0.00241  -0.2035  0.2089  0.0199  -1.0683   0.0000   0.0000   0.0000   0.4906
  -0.400   0.8518   0.00993   0.00249  -0.2033  0.1943  0.0197  -1.0809   0.0000   0.0000   0.0000   0.4874
  -0.300   0.8627   0.00999   0.00252  -0.2032  0.1897  0.0196  -1.0918   0.0000   0.0000   0.0000   0.4842
  -0.200   0.8734   0.01008   0.00257  -0.2032  0.1842  0.0195  -1.1032   0.0000   0.0000   0.0000   0.4811
  -0.100   0.8842   0.01015   0.00261  -0.2031  0.1782  0.0194  -1.1142   0.0000   0.0000   0.0000   0.4780
   0.000   0.8954   0.01019   0.00264  -0.2031  0.1734  0.0193  -1.1249   0.0000   0.0000   0.0000   0.4750


