xflr5 v6.59

 Calculated polar for: WORTMANN FX 63-137 AIRFOIL

 1 1 Reynolds number fixed          Mach number fixed         

 xtrf =   1.000 (top)        1.000 (bottom)
 Mach =   0.000     Re =     0.700 e 6     Ncrit =   9.000

  alpha     CL        CD       CDp       Cm    Top Xtr Bot Xtr   Cpmin    Chinge    XCp    
 ------- -------- --------- --------- -------- ------- ------- -------- --------- ---------
 -19.400  -0.4040   0.22354   0.22120  -0.0203  1.0000  0.0086  -1.3740   0.0000   0.0000   0.0000   0.1692
 -19.300  -0.4010   0.22242   0.22008  -0.0208  1.0000  0.0087  -1.3792   0.0000   0.0000   0.0000   0.1675
 -19.200  -0.3981   0.22128   0.21895  -0.0213  1.0000  0.0088  -1.3867   0.0000   0.0000   0.0000   0.1657
 -19.100  -0.3950   0.22011   0.21778  -0.0219  1.0000  0.0090  -1.3974   0.0000   0.0000   0.0000   0.1639
 -19.000  -0.3920   0.21892   0.21659  -0.0224  1.0000  0.0092  -1.4119   0.0000   0.0000   0.0000   0.1620
 -18.900  -0.3890   0.21772   0.21539  -0.0231  1.0000  0.0093  -1.4287   0.0000   0.0000   0.0000   0.1599
 -18.800  -0.3860   0.21654   0.21422  -0.0237  1.0000  0.0094  -1.4443   0.0000   0.0000   0.0000   0.1578
 -18.700  -0.3832   0.21539   0.21307  -0.0243  1.0000  0.0095  -1.4573   0.0000   0.0000   0.0000   0.1557
 -18.600  -0.3804   0.21424   0.21193  -0.0249  1.0000  0.0096  -1.4685   0.0000   0.0000   0.0000   0.1537
 -18.500  -0.3777   0.21310   0.21078  -0.0255  1.0000  0.0096  -1.4785   0.0000   0.0000   0.0000   0.1516
 -18.400  -0.3751   0.21195   0.20964  -0.0261  1.0000  0.0096  -1.4878   0.0000   0.0000   0.0000   0.1496
 -18.300  -0.3725   0.21079   0.20848  -0.0266  1.0000  0.0097  -1.4967   0.0000   0.0000   0.0000   0.1476
 -18.200  -0.3699   0.20963   0.20733  -0.0271  1.0000  0.0097  -1.5033   0.0000   0.0000   0.0000   0.1457
 -18.100  -0.3673   0.20847   0.20617  -0.0277  1.0000  0.0097  -1.5082   0.0000   0.0000   0.0000   0.1438
 -18.000  -0.3646   0.20730   0.20500  -0.0281  1.0000  0.0097  -1.5130   0.0000   0.0000   0.0000   0.1418
 -17.900  -0.3620   0.20612   0.20383  -0.0286  1.0000  0.0098  -1.5171   0.0000   0.0000   0.0000   0.1400
 -17.800  -0.3594   0.20493   0.20264  -0.0291  1.0000  0.0098  -1.5214   0.0000   0.0000   0.0000   0.1381
 -17.700  -0.3569   0.20374   0.20146  -0.0296  1.0000  0.0098  -1.5258   0.0000   0.0000   0.0000   0.1362
 -17.600  -0.3543   0.20255   0.20027  -0.0300  1.0000  0.0098  -1.5303   0.0000   0.0000   0.0000   0.1343
 -17.500  -0.3518   0.20135   0.19907  -0.0305  1.0000  0.0098  -1.5350   0.0000   0.0000   0.0000   0.1324
 -17.400  -0.3494   0.20014   0.19787  -0.0309  1.0000  0.0098  -1.5399   0.0000   0.0000   0.0000   0.1305
 -17.300  -0.3469   0.19893   0.19666  -0.0314  1.0000  0.0098  -1.5449   0.0000   0.0000   0.0000   0.1285
 -17.200  -0.3445   0.19772   0.19545  -0.0318  1.0000  0.0098  -1.5500   0.0000   0.0000   0.0000   0.1266
 -17.100  -0.3421   0.19650   0.19424  -0.0322  1.0000  0.0099  -1.5554   0.0000   0.0000   0.0000   0.1247
 -17.000  -0.3397   0.19527   0.19302  -0.0326  1.0000  0.0099  -1.5609   0.0000   0.0000   0.0000   0.1228
 -16.900  -0.3373   0.19404   0.19179  -0.0331  1.0000  0.0099  -1.5663   0.0000   0.0000   0.0000   0.1209
 -16.800  -0.3350   0.19281   0.19056  -0.0335  1.0000  0.0099  -1.5720   0.0000   0.0000   0.0000   0.1190
 -16.700  -0.3327   0.19157   0.18933  -0.0339  1.0000  0.0099  -1.5780   0.0000   0.0000   0.0000   0.1171
 -16.600  -0.3304   0.19033   0.18809  -0.0342  1.0000  0.0099  -1.5851   0.0000   0.0000   0.0000   0.1152
 -16.500  -0.3281   0.18908   0.18685  -0.0346  1.0000  0.0099  -1.5925   0.0000   0.0000   0.0000   0.1133
 -16.400  -0.3259   0.18783   0.18560  -0.0350  1.0000  0.0099  -1.6001   0.0000   0.0000   0.0000   0.1114
 -16.300  -0.3237   0.18658   0.18435  -0.0354  1.0000  0.0099  -1.6079   0.0000   0.0000   0.0000   0.1095
 -16.200  -0.3215   0.18532   0.18310  -0.0358  1.0000  0.0099  -1.6157   0.0000   0.0000   0.0000   0.1076
 -16.100  -0.3193   0.18406   0.18184  -0.0361  1.0000  0.0099  -1.6238   0.0000   0.0000   0.0000   0.1057
 -16.000  -0.3172   0.18279   0.18058  -0.0365  1.0000  0.0099  -1.6322   0.0000   0.0000   0.0000   0.1039
 -15.900  -0.3151   0.18153   0.17932  -0.0368  1.0000  0.0099  -1.6408   0.0000   0.0000   0.0000   0.1020
 -15.800  -0.3130   0.18026   0.17806  -0.0371  1.0000  0.0099  -1.6497   0.0000   0.0000   0.0000   0.1002
 -15.700  -0.3110   0.17898   0.17679  -0.0375  1.0000  0.0099  -1.6589   0.0000   0.0000   0.0000   0.0984
 -15.600  -0.3090   0.17771   0.17552  -0.0378  1.0000  0.0100  -1.6684   0.0000   0.0000   0.0000   0.0965
 -15.500  -0.3109   0.17400   0.17183  -0.0373  1.0000  0.0106  -1.7160   0.0000   0.0000   0.0000   0.0989
 -15.400  -0.3082   0.17303   0.17086  -0.0375  1.0000  0.0107  -1.6906   0.0000   0.0000   0.0000   0.0974
 -15.300  -0.3056   0.17204   0.16986  -0.0376  1.0000  0.0108  -1.6679   0.0000   0.0000   0.0000   0.0959
 -15.200  -0.3030   0.17108   0.16890  -0.0378  1.0000  0.0109  -1.6444   0.0000   0.0000   0.0000   0.0944
 -15.100  -0.3005   0.17012   0.16795  -0.0379  1.0000  0.0110  -1.6223   0.0000   0.0000   0.0000   0.0928
 -15.000  -0.2980   0.16916   0.16699  -0.0381  1.0000  0.0111  -1.6016   0.0000   0.0000   0.0000   0.0913
 -14.900  -0.2956   0.16819   0.16603  -0.0382  1.0000  0.0112  -1.5822   0.0000   0.0000   0.0000   0.0897
 -14.800  -0.2932   0.16722   0.16506  -0.0384  1.0000  0.0113  -1.5641   0.0000   0.0000   0.0000   0.0882
 -14.700  -0.2909   0.16624   0.16409  -0.0385  1.0000  0.0114  -1.5474   0.0000   0.0000   0.0000   0.0867
 -14.600  -0.2887   0.16525   0.16311  -0.0387  1.0000  0.0115  -1.5319   0.0000   0.0000   0.0000   0.0851
 -14.500  -0.2865   0.16426   0.16213  -0.0388  1.0000  0.0117  -1.5178   0.0000   0.0000   0.0000   0.0836
 -14.400  -0.2845   0.16327   0.16114  -0.0390  1.0000  0.0119  -1.5049   0.0000   0.0000   0.0000   0.0822
 -14.300  -0.2824   0.16227   0.16015  -0.0391  1.0000  0.0120  -1.4933   0.0000   0.0000   0.0000   0.0808
 -14.200  -0.2805   0.16126   0.15915  -0.0392  1.0000  0.0122  -1.4831   0.0000   0.0000   0.0000   0.0795
 -14.100  -0.2787   0.16026   0.15815  -0.0394  1.0000  0.0124  -1.4741   0.0000   0.0000   0.0000   0.0782
 -14.000  -0.2769   0.15924   0.15714  -0.0395  1.0000  0.0126  -1.4665   0.0000   0.0000   0.0000   0.0770
 -13.900  -0.2752   0.15823   0.15614  -0.0396  1.0000  0.0129  -1.4602   0.0000   0.0000   0.0000   0.0758
 -13.800  -0.2736   0.15721   0.15513  -0.0396  1.0000  0.0132  -1.4551   0.0000   0.0000   0.0000   0.0748
 -13.700  -0.2721   0.15619   0.15412  -0.0397  1.0000  0.0135  -1.4514   0.0000   0.0000   0.0000   0.0738
 -13.600  -0.2707   0.15517   0.15311  -0.0398  1.0000  0.0138  -1.4492   0.0000   0.0000   0.0000   0.0730
 -13.500  -0.2694   0.15415   0.15209  -0.0398  1.0000  0.0142  -1.4486   0.0000   0.0000   0.0000   0.0722
 -13.400  -0.2682   0.15313   0.15108  -0.0398  1.0000  0.0146  -1.4499   0.0000   0.0000   0.0000   0.0716
 -13.300  -0.2668   0.15208   0.15004  -0.0399  1.0000  0.0151  -1.4542   0.0000   0.0000   0.0000   0.0706
 -13.200  -0.2603   0.15044   0.14840  -0.0416  0.9997  0.0160  -1.4671   0.0000   0.0000   0.0000   0.0598
 -13.100  -0.2541   0.14881   0.14677  -0.0433  0.9994  0.0164  -1.4844   0.0000   0.0000   0.0000   0.0486
 -13.000  -0.2485   0.14713   0.14509  -0.0449  0.9990  0.0166  -1.4994   0.0000   0.0000   0.0000   0.0376
 -12.900  -0.2431   0.14541   0.14337  -0.0465  0.9987  0.0166  -1.5140   0.0000   0.0000   0.0000   0.0265
 -12.800  -0.2377   0.14366   0.14161  -0.0480  0.9983  0.0167  -1.5291   0.0000   0.0000   0.0000   0.0152
 -12.700  -0.2325   0.14187   0.13983  -0.0495  0.9979  0.0167  -1.5449   0.0000   0.0000   0.0000   0.0034
 -12.600  -0.2272   0.14006   0.13802  -0.0511  0.9974  0.0168  -1.5619   0.0000   0.0000   0.0000  -0.0089
 -12.500  -0.2220   0.13823   0.13618  -0.0526  0.9970  0.0168  -1.5802   0.0000   0.0000   0.0000  -0.0218
 -12.400  -0.2168   0.13638   0.13433  -0.0541  0.9965  0.0168  -1.5988   0.0000   0.0000   0.0000  -0.0353
 -12.300  -0.2115   0.13450   0.13245  -0.0556  0.9961  0.0168  -1.6194   0.0000   0.0000   0.0000  -0.0494
 -12.200  -0.2064   0.13259   0.13054  -0.0571  0.9958  0.0168  -1.6432   0.0000   0.0000   0.0000  -0.0641
 -12.100  -0.2016   0.13063   0.12858  -0.0586  0.9951  0.0168  -1.6712   0.0000   0.0000   0.0000  -0.0783
 -12.000  -0.1972   0.12858   0.12653  -0.0599  0.9944  0.0167  -1.7064   0.0000   0.0000   0.0000  -0.0926
 -11.900  -0.2016   0.12440   0.12236  -0.0605  0.9940  0.0128  -1.9342   0.0000   0.0000   0.0000  -0.0884
 -11.800  -0.1965   0.12262   0.12057  -0.0620  0.9932  0.0131  -1.9528   0.0000   0.0000   0.0000  -0.1048
 -11.700  -0.1914   0.12080   0.11875  -0.0636  0.9925  0.0132  -1.9713   0.0000   0.0000   0.0000  -0.1221
 -11.600  -0.1866   0.11891   0.11686  -0.0652  0.9918  0.0133  -1.9942   0.0000   0.0000   0.0000  -0.1401
 -11.500  -0.1820   0.11696   0.11491  -0.0668  0.9912  0.0132  -2.0209   0.0000   0.0000   0.0000  -0.1586
 -11.400  -0.1776   0.11495   0.11289  -0.0684  0.9906  0.0131  -2.0519   0.0000   0.0000   0.0000  -0.1780
 -11.300  -0.1743   0.11290   0.11085  -0.0699  0.9893  0.0129  -2.0890   0.0000   0.0000   0.0000  -0.1941
 -11.200  -0.1714   0.11071   0.10866  -0.0713  0.9877  0.0127  -2.1376   0.0000   0.0000   0.0000  -0.2099
 -11.100  -0.1692   0.10819   0.10614  -0.0730  0.9862  0.0124  -2.2110   0.0000   0.0000   0.0000  -0.2260
 -10.900  -0.4418   0.02012   0.01627  -0.1636  0.9374  0.0092  -8.3745   0.0000   0.0000   0.0000  -0.1432
 -10.800  -0.4231   0.01917   0.01521  -0.1668  0.9357  0.0093  -8.2138   0.0000   0.0000   0.0000  -0.1676
 -10.700  -0.4039   0.01840   0.01434  -0.1697  0.9343  0.0093  -8.0419   0.0000   0.0000   0.0000  -0.1943
 -10.600  -0.3848   0.01777   0.01363  -0.1723  0.9327  0.0094  -7.8654   0.0000   0.0000   0.0000  -0.2228
 -10.500  -0.3696   0.01729   0.01310  -0.1739  0.9288  0.0095  -7.7086   0.0000   0.0000   0.0000  -0.2461
 -10.400  -0.3528   0.01686   0.01262  -0.1757  0.9255  0.0096  -7.5393   0.0000   0.0000   0.0000  -0.2744
 -10.300  -0.3353   0.01650   0.01222  -0.1775  0.9224  0.0097  -7.3625   0.0000   0.0000   0.0000  -0.3069
 -10.200  -0.3174   0.01622   0.01191  -0.1793  0.9193  0.0098  -7.1803   0.0000   0.0000   0.0000  -0.3435
 -10.100  -0.2994   0.01602   0.01167  -0.1810  0.9164  0.0099  -6.9951   0.0000   0.0000   0.0000  -0.3845
  -9.900  -0.2708   0.01584   0.01150  -0.1826  0.9066  0.0101  -6.6677   0.0000   0.0000   0.0000  -0.4564
  -9.800  -0.2556   0.01579   0.01143  -0.1835  0.9018  0.0102  -6.5166   0.0000   0.0000   0.0000  -0.5014
  -9.700  -0.2401   0.01570   0.01130  -0.1846  0.8974  0.0104  -6.3701   0.0000   0.0000   0.0000  -0.5539
  -9.600  -0.2274   0.01556   0.01113  -0.1851  0.8923  0.0106  -6.2462   0.0000   0.0000   0.0000  -0.6005
  -9.500  -0.2147   0.01538   0.01091  -0.1857  0.8870  0.0107  -6.1279   0.0000   0.0000   0.0000  -0.6529
  -9.400  -0.2015   0.01516   0.01063  -0.1864  0.8819  0.0110  -6.0127   0.0000   0.0000   0.0000  -0.7149
  -9.300  -0.1881   0.01490   0.01025  -0.1872  0.8772  0.0112  -5.9028   0.0000   0.0000   0.0000  -0.7878
  -9.200  -0.1764   0.01465   0.00994  -0.1876  0.8726  0.0114  -5.8004   0.0000   0.0000   0.0000  -0.8584
  -9.100  -0.1649   0.01439   0.00962  -0.1880  0.8677  0.0116  -5.7010   0.0000   0.0000   0.0000  -0.9372
  -9.000  -0.1529   0.01412   0.00928  -0.1885  0.8630  0.0118  -5.6008   0.0000   0.0000   0.0000  -1.0323
  -8.900  -0.1407   0.01385   0.00893  -0.1890  0.8585  0.0120  -5.5003   0.0000   0.0000   0.0000  -1.1472
  -8.800  -0.1282   0.01360   0.00860  -0.1896  0.8544  0.0122  -5.3992   0.0000   0.0000   0.0000  -1.2866
  -8.700  -0.1164   0.01335   0.00828  -0.1900  0.8509  0.0124  -5.3014   0.0000   0.0000   0.0000  -1.4451
  -8.600  -0.1046   0.01311   0.00797  -0.1904  0.8473  0.0125  -5.2039   0.0000   0.0000   0.0000  -1.6387
  -8.500  -0.0927   0.01288   0.00768  -0.1908  0.8437  0.0126  -5.1059   0.0000   0.0000   0.0000  -1.8853
  -8.400  -0.0807   0.01269   0.00743  -0.1912  0.8401  0.0128  -5.0051   0.0000   0.0000   0.0000  -2.2050
  -8.300  -0.0686   0.01250   0.00716  -0.1916  0.8366  0.0130  -4.9060   0.0000   0.0000   0.0000  -2.6433
  -8.200  -0.0563   0.01229   0.00687  -0.1920  0.8330  0.0130  -4.8088   0.0000   0.0000   0.0000  -3.2806
  -8.100  -0.0440   0.01210   0.00661  -0.1924  0.8294  0.0130  -4.7109   0.0000   0.0000   0.0000  -4.2802
  -8.000  -0.0321   0.01191   0.00637  -0.1928  0.8265  0.0130  -4.6151   0.0000   0.0000   0.0000  -5.9541
  -7.900  -0.0203   0.01173   0.00614  -0.1931  0.8230  0.0131  -4.5190   0.0000   0.0000   0.0000  -9.5962
  -7.800  -0.0084   0.01157   0.00593  -0.1933  0.8192  0.0131  -4.4227   0.0000   0.0000   0.0000  -23.6246
  -7.700   0.0035   0.01143   0.00573  -0.1936  0.8152  0.0131  -4.3265   0.0000   0.0000   0.0000  56.7264
  -7.600   0.0154   0.01130   0.00554  -0.1939  0.8109  0.0132  -4.2307   0.0000   0.0000   0.0000  13.2331
  -7.500   0.0272   0.01120   0.00536  -0.1941  0.8064  0.0132  -4.1354   0.0000   0.0000   0.0000   7.6016
  -7.400   0.0391   0.01108   0.00520  -0.1943  0.8025  0.0133  -4.0404   0.0000   0.0000   0.0000   5.3783
  -7.300   0.0508   0.01097   0.00504  -0.1945  0.7989  0.0133  -3.9462   0.0000   0.0000   0.0000   4.1935
  -7.200   0.0626   0.01086   0.00490  -0.1947  0.7950  0.0134  -3.8523   0.0000   0.0000   0.0000   3.4542
  -7.100   0.0743   0.01077   0.00476  -0.1949  0.7909  0.0135  -3.7589   0.0000   0.0000   0.0000   2.9497
  -7.000   0.0860   0.01069   0.00463  -0.1951  0.7867  0.0135  -3.6660   0.0000   0.0000   0.0000   2.5842
  -6.900   0.0976   0.01063   0.00449  -0.1952  0.7825  0.0136  -3.5720   0.0000   0.0000   0.0000   2.3067
  -6.800   0.1093   0.01057   0.00437  -0.1954  0.7780  0.0137  -3.4806   0.0000   0.0000   0.0000   2.0864
  -6.700   0.1212   0.01048   0.00427  -0.1955  0.7754  0.0138  -3.4125   0.0000   0.0000   0.0000   1.9077
  -6.600   0.1330   0.01040   0.00416  -0.1957  0.7724  0.0139  -3.3460   0.0000   0.0000   0.0000   1.7609
  -6.500   0.1448   0.01032   0.00407  -0.1959  0.7690  0.0140  -3.2794   0.0000   0.0000   0.0000   1.6383
  -6.400   0.1566   0.01026   0.00398  -0.1960  0.7652  0.0141  -3.2128   0.0000   0.0000   0.0000   1.5346
  -6.300   0.1682   0.01020   0.00389  -0.1962  0.7612  0.0142  -3.1462   0.0000   0.0000   0.0000   1.4459
  -6.200   0.1798   0.01016   0.00381  -0.1963  0.7571  0.0144  -3.0797   0.0000   0.0000   0.0000   1.3691
  -6.100   0.1912   0.01013   0.00374  -0.1963  0.7529  0.0145  -3.0132   0.0000   0.0000   0.0000   1.3022
  -6.000   0.2027   0.01009   0.00368  -0.1964  0.7491  0.0146  -2.9459   0.0000   0.0000   0.0000   1.2423
  -5.900   0.2145   0.01004   0.00362  -0.1966  0.7462  0.0148  -2.8774   0.0000   0.0000   0.0000   1.1881
  -5.800   0.2262   0.01000   0.00356  -0.1967  0.7429  0.0149  -2.8085   0.0000   0.0000   0.0000   1.1397
  -5.700   0.2378   0.00997   0.00352  -0.1968  0.7393  0.0151  -2.7390   0.0000   0.0000   0.0000   1.0964
  -5.600   0.2492   0.00995   0.00348  -0.1969  0.7357  0.0153  -2.6687   0.0000   0.0000   0.0000   1.0574
  -5.500   0.2606   0.00994   0.00346  -0.1969  0.7321  0.0155  -2.5974   0.0000   0.0000   0.0000   1.0220
  -5.400   0.2718   0.00994   0.00344  -0.1969  0.7286  0.0157  -2.5248   0.0000   0.0000   0.0000   0.9898
  -5.300   0.2829   0.00995   0.00344  -0.1969  0.7251  0.0159  -2.4506   0.0000   0.0000   0.0000   0.9604
  -5.200   0.2941   0.00997   0.00347  -0.1969  0.7215  0.0161  -2.3741   0.0000   0.0000   0.0000   0.9332
  -5.100   0.3055   0.00998   0.00351  -0.1969  0.7196  0.0164  -2.2941   0.0000   0.0000   0.0000   0.9075
  -5.000   0.3167   0.01000   0.00357  -0.1969  0.7177  0.0166  -2.2113   0.0000   0.0000   0.0000   0.8839
  -4.900   0.3276   0.01006   0.00368  -0.1968  0.7156  0.0168  -2.1254   0.0000   0.0000   0.0000   0.8622
  -4.800   0.3381   0.01016   0.00383  -0.1966  0.7133  0.0170  -2.0347   0.0000   0.0000   0.0000   0.8424
  -4.700   0.3462   0.01054   0.00434  -0.1957  0.7106  0.0174  -1.9169   0.0000   0.0000   0.0000   0.8257
  -4.600   0.3601   0.01024   0.00397  -0.1965  0.7077  0.0180  -1.8884   0.0000   0.0000   0.0000   0.8054
  -4.500   0.3734   0.01004   0.00372  -0.1971  0.7046  0.0186  -1.8527   0.0000   0.0000   0.0000   0.7870
  -4.400   0.3861   0.00991   0.00355  -0.1975  0.7015  0.0192  -1.8119   0.0000   0.0000   0.0000   0.7702
  -4.300   0.3983   0.00982   0.00340  -0.1978  0.6983  0.0199  -1.7682   0.0000   0.0000   0.0000   0.7547
  -4.200   0.4103   0.00976   0.00331  -0.1980  0.6952  0.0203  -1.7212   0.0000   0.0000   0.0000   0.7402
  -4.100   0.4222   0.00971   0.00322  -0.1982  0.6920  0.0207  -1.6734   0.0000   0.0000   0.0000   0.7267
  -4.000   0.4344   0.00965   0.00315  -0.1984  0.6897  0.0211  -1.6245   0.0000   0.0000   0.0000   0.7137
  -3.900   0.4467   0.00959   0.00307  -0.1987  0.6875  0.0215  -1.5752   0.0000   0.0000   0.0000   0.7013
  -3.800   0.4589   0.00953   0.00300  -0.1989  0.6850  0.0218  -1.5262   0.0000   0.0000   0.0000   0.6896
  -3.700   0.4710   0.00947   0.00293  -0.1992  0.6825  0.0221  -1.4775   0.0000   0.0000   0.0000   0.6786
  -3.600   0.4831   0.00943   0.00287  -0.1994  0.6798  0.0223  -1.4294   0.0000   0.0000   0.0000   0.6681
  -3.500   0.4952   0.00938   0.00280  -0.1996  0.6770  0.0225  -1.3819   0.0000   0.0000   0.0000   0.6581
  -3.400   0.5071   0.00934   0.00274  -0.1998  0.6741  0.0228  -1.3348   0.0000   0.0000   0.0000   0.6487
  -3.300   0.5190   0.00931   0.00269  -0.1999  0.6712  0.0233  -1.2851   0.0000   0.0000   0.0000   0.6397
  -3.200   0.5307   0.00928   0.00266  -0.2001  0.6681  0.0241  -1.2331   0.0000   0.0000   0.0000   0.6312
  -3.100   0.5423   0.00926   0.00262  -0.2002  0.6650  0.0248  -1.1814   0.0000   0.0000   0.0000   0.6231
  -3.000   0.5540   0.00925   0.00258  -0.2003  0.6618  0.0255  -1.1318   0.0000   0.0000   0.0000   0.6153
  -2.900   0.5660   0.00921   0.00254  -0.2005  0.6597  0.0260  -1.0840   0.0000   0.0000   0.0000   0.6077
  -2.800   0.5783   0.00916   0.00249  -0.2008  0.6580  0.0263  -1.0385   0.0000   0.0000   0.0000   0.6003
  -2.700   0.5907   0.00912   0.00243  -0.2010  0.6558  0.0264  -0.9955   0.0000   0.0000   0.0000   0.5932
  -2.600   0.6029   0.00907   0.00237  -0.2013  0.6533  0.0264  -0.9544   0.0000   0.0000   0.0000   0.5865
  -2.500   0.6151   0.00904   0.00231  -0.2015  0.6503  0.0264  -0.9141   0.0000   0.0000   0.0000   0.5800
  -2.400   0.6271   0.00901   0.00226  -0.2016  0.6468  0.0264  -0.8863   0.0000   0.0000   0.0000   0.5737
  -2.300   0.6390   0.00899   0.00219  -0.2017  0.6431  0.0262  -0.8949   0.0000   0.0000   0.0000   0.5677
  -2.200   0.6507   0.00898   0.00215  -0.2018  0.6389  0.0264  -0.9035   0.0000   0.0000   0.0000   0.5620
  -2.100   0.6621   0.00899   0.00212  -0.2019  0.6347  0.0264  -0.9120   0.0000   0.0000   0.0000   0.5565
  -2.000   0.6733   0.00900   0.00210  -0.2019  0.6303  0.0265  -0.9204   0.0000   0.0000   0.0000   0.5512
  -1.900   0.6850   0.00900   0.00208  -0.2020  0.6270  0.0266  -0.9290   0.0000   0.0000   0.0000   0.5460
  -1.800   0.6968   0.00900   0.00205  -0.2021  0.6238  0.0267  -0.9376   0.0000   0.0000   0.0000   0.5410
  -1.700   0.7084   0.00899   0.00203  -0.2022  0.6202  0.0268  -0.9463   0.0000   0.0000   0.0000   0.5362
  -1.600   0.7200   0.00900   0.00201  -0.2022  0.6165  0.0268  -0.9555   0.0000   0.0000   0.0000   0.5315
  -0.800   0.8120   0.00908   0.00194  -0.2027  0.5890  0.0332  -1.0363   0.0000   0.0000   0.0000   0.4990
  -0.700   0.8235   0.00909   0.00194  -0.2028  0.5846  0.0336  -1.0464   0.0000   0.0000   0.0000   0.4954
  -0.600   0.8348   0.00911   0.00195  -0.2028  0.5792  0.0339  -1.0565   0.0000   0.0000   0.0000   0.4920
  -0.500   0.8457   0.00916   0.00196  -0.2027  0.5731  0.0342  -1.0664   0.0000   0.0000   0.0000   0.4886
  -0.400   0.8563   0.00921   0.00198  -0.2026  0.5668  0.0346  -1.0761   0.0000   0.0000   0.0000   0.4853
  -0.300   0.8674   0.00925   0.00199  -0.2026  0.5622  0.0349  -1.0860   0.0000   0.0000   0.0000   0.4821
  -0.200   0.8787   0.00928   0.00200  -0.2026  0.5579  0.0354  -1.0961   0.0000   0.0000   0.0000   0.4790
  -0.100   0.8898   0.00931   0.00202  -0.2026  0.5534  0.0360  -1.1061   0.0000   0.0000   0.0000   0.4760
   0.000   0.9008   0.00936   0.00204  -0.2026  0.5485  0.0366  -1.1161   0.0000   0.0000   0.0000   0.4730


