xflr5 v6.59

 Calculated polar for: WORTMANN FX 63-137 AIRFOIL

 1 1 Reynolds number fixed          Mach number fixed         

 xtrf =   1.000 (top)        1.000 (bottom)
 Mach =   0.000     Re =     0.900 e 6     Ncrit =   9.000

  alpha     CL        CD       CDp       Cm    Top Xtr Bot Xtr   Cpmin    Chinge    XCp    
 ------- -------- --------- --------- -------- ------- ------- -------- --------- ---------
 -20.000  -0.4260   0.22800   0.22592  -0.0167  1.0000  0.0054  -1.6532   0.0000   0.0000   0.0000   0.1800
 -19.900  -0.4229   0.22701   0.22493  -0.0172  1.0000  0.0054  -1.6420   0.0000   0.0000   0.0000   0.1785
 -19.800  -0.4199   0.22602   0.22395  -0.0177  1.0000  0.0054  -1.6310   0.0000   0.0000   0.0000   0.1770
 -19.700  -0.4169   0.22504   0.22296  -0.0182  1.0000  0.0055  -1.6203   0.0000   0.0000   0.0000   0.1755
 -19.600  -0.4139   0.22405   0.22198  -0.0188  1.0000  0.0055  -1.6098   0.0000   0.0000   0.0000   0.1739
 -19.500  -0.4109   0.22307   0.22100  -0.0193  1.0000  0.0056  -1.5997   0.0000   0.0000   0.0000   0.1724
 -19.400  -0.4079   0.22207   0.22000  -0.0198  1.0000  0.0056  -1.5898   0.0000   0.0000   0.0000   0.1708
 -19.300  -0.4049   0.22106   0.21899  -0.0203  1.0000  0.0056  -1.5804   0.0000   0.0000   0.0000   0.1692
 -19.200  -0.4020   0.22002   0.21796  -0.0208  1.0000  0.0057  -1.5713   0.0000   0.0000   0.0000   0.1677
 -19.100  -0.3990   0.21895   0.21690  -0.0213  1.0000  0.0057  -1.5626   0.0000   0.0000   0.0000   0.1661
 -19.000  -0.3962   0.21785   0.21579  -0.0217  1.0000  0.0058  -1.5544   0.0000   0.0000   0.0000   0.1645
 -18.900  -0.3933   0.21672   0.21467  -0.0222  1.0000  0.0058  -1.5465   0.0000   0.0000   0.0000   0.1629
 -18.800  -0.3905   0.21559   0.21354  -0.0227  1.0000  0.0059  -1.5389   0.0000   0.0000   0.0000   0.1612
 -18.700  -0.3877   0.21446   0.21241  -0.0232  1.0000  0.0059  -1.5317   0.0000   0.0000   0.0000   0.1596
 -18.600  -0.3848   0.21332   0.21127  -0.0236  1.0000  0.0060  -1.5247   0.0000   0.0000   0.0000   0.1580
 -18.500  -0.3821   0.21218   0.21014  -0.0241  1.0000  0.0060  -1.5181   0.0000   0.0000   0.0000   0.1563
 -18.400  -0.3793   0.21103   0.20900  -0.0246  1.0000  0.0061  -1.5118   0.0000   0.0000   0.0000   0.1547
 -18.300  -0.3765   0.20989   0.20785  -0.0250  1.0000  0.0061  -1.5058   0.0000   0.0000   0.0000   0.1530
 -18.200  -0.3738   0.20874   0.20670  -0.0254  1.0000  0.0062  -1.5001   0.0000   0.0000   0.0000   0.1513
 -18.100  -0.3710   0.20758   0.20555  -0.0259  1.0000  0.0063  -1.4947   0.0000   0.0000   0.0000   0.1496
 -18.000  -0.3683   0.20643   0.20440  -0.0263  1.0000  0.0063  -1.4896   0.0000   0.0000   0.0000   0.1479
 -17.900  -0.3656   0.20527   0.20325  -0.0268  1.0000  0.0064  -1.4848   0.0000   0.0000   0.0000   0.1462
 -17.800  -0.3629   0.20410   0.20209  -0.0272  1.0000  0.0065  -1.4804   0.0000   0.0000   0.0000   0.1445
 -17.700  -0.3602   0.20294   0.20092  -0.0276  1.0000  0.0065  -1.4764   0.0000   0.0000   0.0000   0.1428
 -17.600  -0.3576   0.20177   0.19976  -0.0280  1.0000  0.0066  -1.4726   0.0000   0.0000   0.0000   0.1411
 -17.500  -0.3550   0.20059   0.19859  -0.0284  1.0000  0.0067  -1.4693   0.0000   0.0000   0.0000   0.1393
 -17.400  -0.3524   0.19942   0.19741  -0.0288  1.0000  0.0068  -1.4662   0.0000   0.0000   0.0000   0.1376
 -17.300  -0.3498   0.19824   0.19624  -0.0292  1.0000  0.0068  -1.4635   0.0000   0.0000   0.0000   0.1358
 -17.200  -0.3472   0.19705   0.19506  -0.0296  1.0000  0.0069  -1.4612   0.0000   0.0000   0.0000   0.1340
 -17.100  -0.3446   0.19586   0.19387  -0.0300  1.0000  0.0070  -1.4593   0.0000   0.0000   0.0000   0.1323
 -17.000  -0.3421   0.19467   0.19268  -0.0304  1.0000  0.0071  -1.4578   0.0000   0.0000   0.0000   0.1305
 -16.900  -0.3396   0.19347   0.19149  -0.0308  1.0000  0.0072  -1.4568   0.0000   0.0000   0.0000   0.1287
 -16.800  -0.3371   0.19227   0.19029  -0.0312  1.0000  0.0073  -1.4562   0.0000   0.0000   0.0000   0.1269
 -16.700  -0.3347   0.19106   0.18908  -0.0315  1.0000  0.0074  -1.4562   0.0000   0.0000   0.0000   0.1251
 -16.600  -0.3322   0.18985   0.18787  -0.0319  1.0000  0.0076  -1.4569   0.0000   0.0000   0.0000   0.1233
 -16.500  -0.3298   0.18862   0.18665  -0.0323  1.0000  0.0077  -1.4583   0.0000   0.0000   0.0000   0.1214
 -16.400  -0.3275   0.18739   0.18543  -0.0326  1.0000  0.0078  -1.4606   0.0000   0.0000   0.0000   0.1196
 -16.300  -0.3251   0.18615   0.18419  -0.0330  1.0000  0.0080  -1.4641   0.0000   0.0000   0.0000   0.1178
 -16.200  -0.3228   0.18490   0.18294  -0.0333  1.0000  0.0081  -1.4691   0.0000   0.0000   0.0000   0.1160
 -16.100  -0.3206   0.18362   0.18167  -0.0337  1.0000  0.0083  -1.4765   0.0000   0.0000   0.0000   0.1142
 -16.000  -0.3184   0.18231   0.18036  -0.0340  1.0000  0.0085  -1.4878   0.0000   0.0000   0.0000   0.1123
 -15.900  -0.3162   0.18093   0.17899  -0.0344  1.0000  0.0088  -1.5078   0.0000   0.0000   0.0000   0.1103
 -15.800  -0.3140   0.17939   0.17745  -0.0350  1.0000  0.0092  -1.5577   0.0000   0.0000   0.0000   0.1077
 -15.700  -0.3119   0.17815   0.17622  -0.0357  1.0000  0.0096  -1.6019   0.0000   0.0000   0.0000   0.1046
 -15.600  -0.3095   0.17707   0.17514  -0.0361  1.0000  0.0097  -1.6080   0.0000   0.0000   0.0000   0.1024
 -15.500  -0.3074   0.17592   0.17398  -0.0364  1.0000  0.0097  -1.6141   0.0000   0.0000   0.0000   0.1004
 -15.400  -0.3052   0.17478   0.17284  -0.0368  1.0000  0.0097  -1.6201   0.0000   0.0000   0.0000   0.0985
 -15.300  -0.3032   0.17360   0.17167  -0.0371  1.0000  0.0098  -1.6268   0.0000   0.0000   0.0000   0.0966
 -15.200  -0.3013   0.17241   0.17049  -0.0374  1.0000  0.0098  -1.6345   0.0000   0.0000   0.0000   0.0948
 -15.100  -0.2994   0.17121   0.16929  -0.0377  1.0000  0.0098  -1.6427   0.0000   0.0000   0.0000   0.0930
 -15.000  -0.2975   0.17000   0.16809  -0.0380  1.0000  0.0098  -1.6515   0.0000   0.0000   0.0000   0.0913
 -14.900  -0.2957   0.16878   0.16687  -0.0383  1.0000  0.0099  -1.6608   0.0000   0.0000   0.0000   0.0896
 -14.800  -0.2940   0.16756   0.16566  -0.0385  1.0000  0.0099  -1.6704   0.0000   0.0000   0.0000   0.0880
 -14.700  -0.2924   0.16633   0.16443  -0.0388  1.0000  0.0099  -1.6805   0.0000   0.0000   0.0000   0.0864
 -14.600  -0.2908   0.16510   0.16321  -0.0390  1.0000  0.0099  -1.6910   0.0000   0.0000   0.0000   0.0849
 -14.500  -0.2892   0.16387   0.16199  -0.0392  1.0000  0.0099  -1.7020   0.0000   0.0000   0.0000   0.0835
 -14.400  -0.2878   0.16264   0.16076  -0.0394  1.0000  0.0099  -1.7135   0.0000   0.0000   0.0000   0.0822
 -14.300  -0.2864   0.16141   0.15954  -0.0396  1.0000  0.0099  -1.7255   0.0000   0.0000   0.0000   0.0809
 -14.200  -0.2851   0.16018   0.15831  -0.0398  1.0000  0.0099  -1.7380   0.0000   0.0000   0.0000   0.0797
 -14.100  -0.2839   0.15895   0.15709  -0.0400  1.0000  0.0099  -1.7511   0.0000   0.0000   0.0000   0.0786
 -14.000  -0.2827   0.15773   0.15587  -0.0401  1.0000  0.0099  -1.7647   0.0000   0.0000   0.0000   0.0776
 -13.900  -0.2816   0.15650   0.15466  -0.0402  1.0000  0.0099  -1.7788   0.0000   0.0000   0.0000   0.0767
 -12.500  -0.5712   0.04883   0.04653  -0.1079  0.9878  0.0083  -9.4657   0.0000   0.0000   0.0000   0.0385
 -12.300  -0.5901   0.03868   0.03611  -0.1213  0.9785  0.0083  -9.8537   0.0000   0.0000   0.0000   0.0229
 -12.200  -0.5913   0.03508   0.03238  -0.1271  0.9741  0.0082  -9.9248   0.0000   0.0000   0.0000   0.0139
 -12.100  -0.5928   0.03242   0.02962  -0.1307  0.9661  0.0082  -9.9569   0.0000   0.0000   0.0000   0.0087
 -12.000  -0.5851   0.02948   0.02654  -0.1367  0.9625  0.0082  -9.9331   0.0000   0.0000   0.0000  -0.0044
 -11.900  -0.5799   0.02736   0.02430  -0.1406  0.9553  0.0082  -9.8981   0.0000   0.0000   0.0000  -0.0129
 -11.800  -0.5659   0.02510   0.02189  -0.1463  0.9518  0.0082  -9.8035   0.0000   0.0000   0.0000  -0.0293
 -11.700  -0.5477   0.02312   0.01976  -0.1522  0.9497  0.0082  -9.6698   0.0000   0.0000   0.0000  -0.0489
 -11.600  -0.5291   0.02154   0.01803  -0.1573  0.9473  0.0082  -9.5192   0.0000   0.0000   0.0000  -0.0686
 -11.500  -0.5134   0.02041   0.01678  -0.1607  0.9432  0.0082  -9.3738   0.0000   0.0000   0.0000  -0.0846
 -11.400  -0.4962   0.01951   0.01575  -0.1636  0.9405  0.0083  -9.2112   0.0000   0.0000   0.0000  -0.1017
 -11.300  -0.4778   0.01868   0.01481  -0.1666  0.9383  0.0083  -9.0376   0.0000   0.0000   0.0000  -0.1211
 -11.200  -0.4584   0.01794   0.01396  -0.1695  0.9363  0.0083  -8.8549   0.0000   0.0000   0.0000  -0.1429
 -11.100  -0.4380   0.01727   0.01318  -0.1725  0.9346  0.0083  -8.6644   0.0000   0.0000   0.0000  -0.1676
 -11.000  -0.4180   0.01668   0.01250  -0.1752  0.9325  0.0083  -8.4751   0.0000   0.0000   0.0000  -0.1938
 -10.900  -0.4009   0.01618   0.01191  -0.1772  0.9282  0.0083  -8.3029   0.0000   0.0000   0.0000  -0.2173
 -10.800  -0.3826   0.01572   0.01136  -0.1793  0.9240  0.0083  -8.1234   0.0000   0.0000   0.0000  -0.2448
 -10.700  -0.3639   0.01529   0.01084  -0.1815  0.9198  0.0083  -7.9409   0.0000   0.0000   0.0000  -0.2758
 -10.500  -0.3308   0.01459   0.00998  -0.1847  0.9094  0.0083  -7.6039   0.0000   0.0000   0.0000  -0.3373
 -10.400  -0.3157   0.01430   0.00961  -0.1860  0.9030  0.0083  -7.4447   0.0000   0.0000   0.0000  -0.3688
 -10.300  -0.3003   0.01403   0.00925  -0.1872  0.8972  0.0083  -7.2839   0.0000   0.0000   0.0000  -0.4044
 -10.200  -0.2875   0.01379   0.00896  -0.1879  0.8912  0.0083  -7.1396   0.0000   0.0000   0.0000  -0.4354
 -10.100  -0.2747   0.01357   0.00868  -0.1885  0.8852  0.0083  -7.0033   0.0000   0.0000   0.0000  -0.4691
 -10.000  -0.2618   0.01337   0.00842  -0.1892  0.8795  0.0084  -6.8781   0.0000   0.0000   0.0000  -0.5067
  -9.900  -0.2494   0.01318   0.00819  -0.1897  0.8744  0.0085  -6.7550   0.0000   0.0000   0.0000  -0.5458
  -9.800  -0.2379   0.01300   0.00799  -0.1900  0.8694  0.0085  -6.6360   0.0000   0.0000   0.0000  -0.5850
  -9.700  -0.2262   0.01283   0.00781  -0.1904  0.8643  0.0086  -6.5158   0.0000   0.0000   0.0000  -0.6290
  -9.600  -0.2144   0.01269   0.00764  -0.1907  0.8592  0.0087  -6.3953   0.0000   0.0000   0.0000  -0.6783
  -9.500  -0.2026   0.01256   0.00747  -0.1910  0.8544  0.0088  -6.2753   0.0000   0.0000   0.0000  -0.7335
  -9.400  -0.1910   0.01242   0.00732  -0.1913  0.8503  0.0089  -6.1574   0.0000   0.0000   0.0000  -0.7936
  -9.300  -0.1795   0.01229   0.00714  -0.1915  0.8459  0.0089  -6.0433   0.0000   0.0000   0.0000  -0.8610
  -9.200  -0.1682   0.01220   0.00704  -0.1916  0.8413  0.0091  -5.9230   0.0000   0.0000   0.0000  -0.9365
  -9.100  -0.1569   0.01214   0.00699  -0.1918  0.8366  0.0092  -5.8010   0.0000   0.0000   0.0000  -1.0215
  -9.000  -0.1459   0.01215   0.00700  -0.1917  0.8317  0.0093  -5.6770   0.0000   0.0000   0.0000  -1.1165
  -8.900  -0.1349   0.01216   0.00703  -0.1917  0.8277  0.0094  -5.5533   0.0000   0.0000   0.0000  -1.2272
  -8.800  -0.1238   0.01216   0.00706  -0.1917  0.8237  0.0095  -5.4318   0.0000   0.0000   0.0000  -1.3578
  -8.700  -0.1128   0.01217   0.00709  -0.1917  0.8191  0.0096  -5.3126   0.0000   0.0000   0.0000  -1.5133
  -8.600  -0.1019   0.01218   0.00710  -0.1916  0.8141  0.0096  -5.1959   0.0000   0.0000   0.0000  -1.7010
  -8.500  -0.0911   0.01219   0.00710  -0.1916  0.8088  0.0097  -5.0819   0.0000   0.0000   0.0000  -1.9307
  -8.400  -0.0803   0.01220   0.00710  -0.1915  0.8037  0.0097  -4.9701   0.0000   0.0000   0.0000  -2.2229
  -8.300  -0.0690   0.01217   0.00707  -0.1916  0.7999  0.0098  -4.8586   0.0000   0.0000   0.0000  -2.6245
  -8.200  -0.0578   0.01215   0.00704  -0.1916  0.7956  0.0098  -4.7496   0.0000   0.0000   0.0000  -3.1792
  -8.100  -0.0467   0.01211   0.00698  -0.1917  0.7911  0.0098  -4.6434   0.0000   0.0000   0.0000  -3.9962
  -8.000  -0.0355   0.01204   0.00687  -0.1917  0.7865  0.0098  -4.5415   0.0000   0.0000   0.0000  -5.3276
  -7.900  -0.0245   0.01198   0.00676  -0.1918  0.7817  0.0098  -4.4414   0.0000   0.0000   0.0000  -7.8480
  -7.800  -0.0131   0.01190   0.00665  -0.1919  0.7773  0.0099  -4.3411   0.0000   0.0000   0.0000  -14.8631
  -7.700  -0.0013   0.01178   0.00652  -0.1922  0.7746  0.0099  -4.2409   0.0000   0.0000   0.0000  -149.9091
  -7.600   0.0105   0.01165   0.00636  -0.1924  0.7714  0.0099  -4.1436   0.0000   0.0000   0.0000  19.0897
  -7.500   0.0224   0.01152   0.00620  -0.1927  0.7679  0.0099  -4.0473   0.0000   0.0000   0.0000   9.1333
  -7.400   0.0342   0.01140   0.00605  -0.1929  0.7643  0.0099  -3.9520   0.0000   0.0000   0.0000   6.0705
  -7.300   0.0459   0.01129   0.00590  -0.1931  0.7607  0.0099  -3.8576   0.0000   0.0000   0.0000   4.5830
  -6.700   0.1249   0.00960   0.00346  -0.1968  0.7404  0.0106  -3.5064   0.0000   0.0000   0.0000   1.8677
  -6.600   0.1368   0.00953   0.00335  -0.1969  0.7368  0.0108  -3.4505   0.0000   0.0000   0.0000   1.7277
  -6.500   0.1485   0.00948   0.00326  -0.1971  0.7331  0.0109  -3.3908   0.0000   0.0000   0.0000   1.6115
  -6.400   0.1601   0.00944   0.00318  -0.1972  0.7291  0.0110  -3.3298   0.0000   0.0000   0.0000   1.5132
  -6.300   0.1716   0.00941   0.00311  -0.1972  0.7249  0.0112  -3.2683   0.0000   0.0000   0.0000   1.4287
  -6.200   0.1832   0.00938   0.00304  -0.1973  0.7209  0.0113  -3.2060   0.0000   0.0000   0.0000   1.3540
  -6.100   0.1953   0.00932   0.00297  -0.1976  0.7191  0.0115  -3.1416   0.0000   0.0000   0.0000   1.2860
  -6.000   0.2074   0.00926   0.00290  -0.1978  0.7168  0.0117  -3.0768   0.0000   0.0000   0.0000   1.2261
  -5.900   0.2195   0.00921   0.00284  -0.1979  0.7140  0.0119  -3.0120   0.0000   0.0000   0.0000   1.1731
  -5.800   0.2315   0.00917   0.00279  -0.1981  0.7111  0.0121  -2.9472   0.0000   0.0000   0.0000   1.1257
  -5.700   0.2434   0.00912   0.00273  -0.1983  0.7081  0.0123  -2.8826   0.0000   0.0000   0.0000   1.0831
  -5.600   0.2552   0.00909   0.00268  -0.1984  0.7050  0.0125  -2.8179   0.0000   0.0000   0.0000   1.0446
  -5.500   0.2670   0.00906   0.00264  -0.1986  0.7017  0.0127  -2.7533   0.0000   0.0000   0.0000   1.0097
  -5.400   0.2786   0.00904   0.00260  -0.1987  0.6982  0.0129  -2.6886   0.0000   0.0000   0.0000   0.9781
  -5.300   0.2902   0.00902   0.00256  -0.1987  0.6947  0.0131  -2.6234   0.0000   0.0000   0.0000   0.9491
  -5.200   0.3016   0.00901   0.00253  -0.1988  0.6912  0.0134  -2.5573   0.0000   0.0000   0.0000   0.9225
  -5.100   0.3135   0.00898   0.00251  -0.1989  0.6890  0.0137  -2.4882   0.0000   0.0000   0.0000   0.8972
  -5.000   0.3253   0.00896   0.00249  -0.1991  0.6866  0.0141  -2.4165   0.0000   0.0000   0.0000   0.8739
  -4.900   0.3369   0.00896   0.00250  -0.1992  0.6840  0.0145  -2.3401   0.0000   0.0000   0.0000   0.8524
  -4.800   0.3482   0.00898   0.00253  -0.1992  0.6812  0.0150  -2.2574   0.0000   0.0000   0.0000   0.8326
  -4.700   0.3592   0.00902   0.00259  -0.1991  0.6782  0.0155  -2.1672   0.0000   0.0000   0.0000   0.8143
  -4.600   0.3699   0.00908   0.00270  -0.1990  0.6752  0.0160  -2.0691   0.0000   0.0000   0.0000   0.7975
  -4.500   0.3802   0.00918   0.00286  -0.1988  0.6721  0.0165  -1.9658   0.0000   0.0000   0.0000   0.7819
  -4.400   0.3897   0.00934   0.00310  -0.1984  0.6690  0.0169  -1.8561   0.0000   0.0000   0.0000   0.7676
  -4.300   0.3978   0.00963   0.00348  -0.1976  0.6657  0.0179  -1.7475   0.0000   0.0000   0.0000   0.7549
  -4.200   0.4111   0.00945   0.00323  -0.1982  0.6624  0.0185  -1.7131   0.0000   0.0000   0.0000   0.7398
  -4.100   0.4239   0.00933   0.00307  -0.1986  0.6601  0.0190  -1.6712   0.0000   0.0000   0.0000   0.7258
  -4.000   0.4367   0.00923   0.00295  -0.1990  0.6586  0.0194  -1.6259   0.0000   0.0000   0.0000   0.7125
  -3.900   0.4493   0.00915   0.00285  -0.1994  0.6568  0.0198  -1.5792   0.0000   0.0000   0.0000   0.7001
  -3.800   0.4617   0.00908   0.00276  -0.1997  0.6546  0.0201  -1.5320   0.0000   0.0000   0.0000   0.6884
  -3.700   0.4741   0.00902   0.00269  -0.1999  0.6518  0.0204  -1.4845   0.0000   0.0000   0.0000   0.6774
  -3.600   0.4863   0.00897   0.00262  -0.2002  0.6485  0.0207  -1.4373   0.0000   0.0000   0.0000   0.6669
  -3.500   0.4983   0.00892   0.00255  -0.2004  0.6445  0.0209  -1.3904   0.0000   0.0000   0.0000   0.6571
  -3.400   0.5102   0.00889   0.00249  -0.2005  0.6400  0.0211  -1.3441   0.0000   0.0000   0.0000   0.6477
  -3.300   0.5219   0.00887   0.00244  -0.2006  0.6351  0.0213  -1.2984   0.0000   0.0000   0.0000   0.6388
  -3.200   0.5334   0.00886   0.00238  -0.2007  0.6302  0.0215  -1.2534   0.0000   0.0000   0.0000   0.6304
  -3.100   0.5454   0.00883   0.00233  -0.2009  0.6268  0.0216  -1.2077   0.0000   0.0000   0.0000   0.6222
  -3.000   0.5574   0.00880   0.00228  -0.2011  0.6235  0.0220  -1.1617   0.0000   0.0000   0.0000   0.6143
  -2.900   0.5693   0.00878   0.00224  -0.2012  0.6200  0.0225  -1.1153   0.0000   0.0000   0.0000   0.6068
  -2.800   0.5812   0.00875   0.00221  -0.2014  0.6164  0.0232  -1.0686   0.0000   0.0000   0.0000   0.5996
  -2.700   0.5930   0.00874   0.00217  -0.2016  0.6126  0.0237  -1.0223   0.0000   0.0000   0.0000   0.5927
  -2.600   0.6047   0.00873   0.00214  -0.2017  0.6086  0.0242  -0.9773   0.0000   0.0000   0.0000   0.5861
  -2.500   0.6163   0.00873   0.00210  -0.2018  0.6044  0.0244  -0.9343   0.0000   0.0000   0.0000   0.5798
  -2.400   0.6277   0.00873   0.00206  -0.2018  0.6000  0.0242  -0.8938   0.0000   0.0000   0.0000   0.5737
  -2.300   0.6393   0.00875   0.00198  -0.2018  0.5969  0.0224  -0.8969   0.0000   0.0000   0.0000   0.5677
  -2.200   0.6514   0.00872   0.00196  -0.2020  0.5950  0.0231  -0.9057   0.0000   0.0000   0.0000   0.5619
  -2.100   0.6634   0.00870   0.00193  -0.2022  0.5925  0.0237  -0.9145   0.0000   0.0000   0.0000   0.5564
  -2.000   0.6754   0.00868   0.00191  -0.2024  0.5891  0.0242  -0.9233   0.0000   0.0000   0.0000   0.5510
  -1.900   0.6871   0.00868   0.00188  -0.2025  0.5843  0.0245  -0.9319   0.0000   0.0000   0.0000   0.5459
  -1.800   0.6984   0.00870   0.00186  -0.2025  0.5776  0.0245  -0.9404   0.0000   0.0000   0.0000   0.5409
  -1.700   0.7093   0.00875   0.00185  -0.2024  0.5698  0.0243  -0.9487   0.0000   0.0000   0.0000   0.5362
  -1.600   0.7204   0.00879   0.00184  -0.2024  0.5634  0.0242  -0.9579   0.0000   0.0000   0.0000   0.5316
  -1.500   0.7319   0.00880   0.00182  -0.2025  0.5590  0.0241  -0.9679   0.0000   0.0000   0.0000   0.5271
  -1.400   0.7434   0.00882   0.00181  -0.2026  0.5545  0.0240  -0.9780   0.0000   0.0000   0.0000   0.5228
  -1.300   0.7548   0.00884   0.00180  -0.2026  0.5500  0.0239  -0.9880   0.0000   0.0000   0.0000   0.5185
  -1.200   0.7660   0.00887   0.00179  -0.2026  0.5453  0.0238  -0.9980   0.0000   0.0000   0.0000   0.5145
  -1.100   0.7771   0.00891   0.00179  -0.2026  0.5404  0.0237  -1.0079   0.0000   0.0000   0.0000   0.5105
  -1.000   0.7883   0.00895   0.00180  -0.2026  0.5353  0.0236  -1.0178   0.0000   0.0000   0.0000   0.5066
  -0.900   0.7997   0.00896   0.00179  -0.2027  0.5318  0.0235  -1.0279   0.0000   0.0000   0.0000   0.5029
  -0.800   0.8115   0.00897   0.00179  -0.2028  0.5296  0.0235  -1.0382   0.0000   0.0000   0.0000   0.4992
  -0.600   0.8350   0.00897   0.00182  -0.2030  0.5222  0.0263  -1.0589   0.0000   0.0000   0.0000   0.4921
  -0.500   0.8460   0.00902   0.00184  -0.2030  0.5136  0.0264  -1.0688   0.0000   0.0000   0.0000   0.4888
  -0.400   0.8554   0.00917   0.00184  -0.2026  0.5013  0.0258  -1.0778   0.0000   0.0000   0.0000   0.4856
  -0.300   0.8654   0.00928   0.00185  -0.2024  0.4931  0.0254  -1.0872   0.0000   0.0000   0.0000   0.4824
  -0.200   0.8758   0.00937   0.00188  -0.2022  0.4850  0.0254  -1.0968   0.0000   0.0000   0.0000   0.4793
  -0.100   0.8864   0.00946   0.00193  -0.2021  0.4759  0.0255  -1.1064   0.0000   0.0000   0.0000   0.4763
   0.000   0.8972   0.00952   0.00198  -0.2021  0.4669  0.0257  -1.1162   0.0000   0.0000   0.0000   0.4734


