xflr5 v6.59

 Calculated polar for: WORTMANN FX 63-137 AIRFOIL

 1 1 Reynolds number fixed          Mach number fixed         

 xtrf =   1.000 (top)        1.000 (bottom)
 Mach =   0.000     Re =     4.100 e 6     Ncrit =   9.000

  alpha     CL        CD       CDp       Cm    Top Xtr Bot Xtr   Cpmin    Chinge    XCp    
 ------- -------- --------- --------- -------- ------- ------- -------- --------- ---------
 -15.700  -0.1825   0.14355   0.14125  -0.0929  0.7188  0.0032  -3.3484   0.0000   0.0000   0.0000  -0.3256
 -15.600  -0.1790   0.14246   0.14017  -0.0935  0.7178  0.0033  -3.3159   0.0000   0.0000   0.0000  -0.3396
 -15.500  -0.1755   0.14138   0.13908  -0.0940  0.7166  0.0034  -3.2835   0.0000   0.0000   0.0000  -0.3542
 -15.400  -0.1720   0.14029   0.13798  -0.0946  0.7149  0.0035  -3.2516   0.0000   0.0000   0.0000  -0.3692
 -15.300  -0.1685   0.13920   0.13689  -0.0952  0.7123  0.0036  -3.2202   0.0000   0.0000   0.0000  -0.3847
 -15.200  -0.1651   0.13811   0.13579  -0.0957  0.7089  0.0036  -3.1893   0.0000   0.0000   0.0000  -0.4007
 -14.600  -0.6295   0.03906   0.03645  -0.1529  0.7990  0.0044  -12.3797   0.0000   0.0000   0.0000  -0.0207
 -14.500  -0.6354   0.03677   0.03410  -0.1550  0.7948  0.0044  -12.4342   0.0000   0.0000   0.0000  -0.0212
 -14.400  -0.6348   0.03550   0.03280  -0.1561  0.7892  0.0044  -12.3852   0.0000   0.0000   0.0000  -0.0229
 -14.300  -0.6359   0.03398   0.03123  -0.1575  0.7835  0.0044  -12.3616   0.0000   0.0000   0.0000  -0.0243
 -14.200  -0.6318   0.03322   0.03045  -0.1582  0.7776  0.0044  -12.2584   0.0000   0.0000   0.0000  -0.0267
 -14.100  -0.6260   0.03262   0.02986  -0.1587  0.7758  0.0045  -12.1323   0.0000   0.0000   0.0000  -0.0298
 -14.000  -0.6147   0.03277   0.03004  -0.1585  0.7730  0.0045  -11.9237   0.0000   0.0000   0.0000  -0.0342
  -8.300  -0.0568   0.00881   0.00314  -0.1984  0.4250  0.0100  -4.9186   0.0000   0.0000   0.0000  -3.3624
  -8.200  -0.0451   0.00879   0.00307  -0.1986  0.4196  0.0100  -4.8133   0.0000   0.0000   0.0000  -4.3057
  -7.800   0.0009   0.00887   0.00293  -0.1986  0.4016  0.0063  -4.3986   0.0000   0.0000   0.0000  225.0128
  -7.700   0.0130   0.00882   0.00287  -0.1988  0.4004  0.0062  -4.3049   0.0000   0.0000   0.0000  16.0218
  -7.600   0.0251   0.00877   0.00281  -0.1990  0.3989  0.0062  -4.2278   0.0000   0.0000   0.0000   8.4356
  -7.500   0.0372   0.00873   0.00275  -0.1992  0.3977  0.0062  -4.1512   0.0000   0.0000   0.0000   5.7761
  -7.400   0.0493   0.00868   0.00270  -0.1994  0.3972  0.0061  -4.0749   0.0000   0.0000   0.0000   4.4196
  -7.300   0.0597   0.00877   0.00270  -0.1993  0.3717  0.0061  -4.0048   0.0000   0.0000   0.0000   3.6870
  -7.200   0.0715   0.00875   0.00265  -0.1994  0.3664  0.0061  -3.9304   0.0000   0.0000   0.0000   3.1204
  -7.100   0.0833   0.00873   0.00261  -0.1996  0.3620  0.0060  -3.8564   0.0000   0.0000   0.0000   2.7151
  -7.000   0.0950   0.00872   0.00258  -0.1997  0.3577  0.0060  -3.7830   0.0000   0.0000   0.0000   2.4114
  -6.900   0.1070   0.00869   0.00253  -0.1998  0.3566  0.0060  -3.7088   0.0000   0.0000   0.0000   2.1698
  -6.800   0.1187   0.00868   0.00249  -0.2000  0.3527  0.0059  -3.6361   0.0000   0.0000   0.0000   1.9799
  -6.700   0.1306   0.00867   0.00246  -0.2001  0.3485  0.0059  -3.5636   0.0000   0.0000   0.0000   1.8236
  -6.600   0.1424   0.00865   0.00243  -0.2002  0.3436  0.0059  -3.4913   0.0000   0.0000   0.0000   1.6928
  -6.500   0.1544   0.00862   0.00240  -0.2004  0.3398  0.0058  -3.4189   0.0000   0.0000   0.0000   1.5816
  -6.400   0.1664   0.00860   0.00237  -0.2005  0.3387  0.0058  -3.3464   0.0000   0.0000   0.0000   1.4861
  -6.300   0.1783   0.00858   0.00234  -0.2007  0.3379  0.0058  -3.2741   0.0000   0.0000   0.0000   1.4035
  -6.200   0.1903   0.00855   0.00232  -0.2008  0.3370  0.0058  -3.2019   0.0000   0.0000   0.0000   1.3314
  -6.100   0.2022   0.00853   0.00229  -0.2010  0.3358  0.0058  -3.1298   0.0000   0.0000   0.0000   1.2679
  -6.000   0.2141   0.00852   0.00227  -0.2011  0.3347  0.0058  -3.0577   0.0000   0.0000   0.0000   1.2115
  -5.900   0.2260   0.00850   0.00225  -0.2013  0.3343  0.0058  -2.9850   0.0000   0.0000   0.0000   1.1610
  -5.800   0.2365   0.00860   0.00228  -0.2011  0.3132  0.0057  -2.9170   0.0000   0.0000   0.0000   1.1198
  -5.700   0.2480   0.00861   0.00227  -0.2012  0.3058  0.0057  -2.8452   0.0000   0.0000   0.0000   1.0793
  -5.600   0.2596   0.00862   0.00227  -0.2013  0.3018  0.0057  -2.7709   0.0000   0.0000   0.0000   1.0423
  -5.500   0.2710   0.00865   0.00228  -0.2013  0.2979  0.0056  -2.6845   0.0000   0.0000   0.0000   1.0089
  -5.400   0.2813   0.00876   0.00245  -0.2011  0.2940  0.0056  -2.5370   0.0000   0.0000   0.0000   0.9801
  -5.300   0.2929   0.00876   0.00244  -0.2012  0.2898  0.0056  -2.4722   0.0000   0.0000   0.0000   0.9511
  -5.200   0.3047   0.00876   0.00242  -0.2014  0.2855  0.0055  -2.4093   0.0000   0.0000   0.0000   0.9241
  -5.100   0.3166   0.00875   0.00240  -0.2015  0.2810  0.0055  -2.3481   0.0000   0.0000   0.0000   0.8990
  -5.000   0.3285   0.00873   0.00238  -0.2017  0.2786  0.0055  -2.2885   0.0000   0.0000   0.0000   0.8756
  -4.900   0.3405   0.00871   0.00235  -0.2018  0.2780  0.0054  -2.2303   0.0000   0.0000   0.0000   0.8538
  -4.800   0.3525   0.00869   0.00232  -0.2020  0.2772  0.0054  -2.1736   0.0000   0.0000   0.0000   0.8335
  -4.700   0.3645   0.00866   0.00230  -0.2021  0.2763  0.0054  -2.1184   0.0000   0.0000   0.0000   0.8145
  -4.600   0.3765   0.00865   0.00227  -0.2023  0.2751  0.0053  -2.0647   0.0000   0.0000   0.0000   0.7967
  -4.500   0.3885   0.00862   0.00224  -0.2025  0.2746  0.0053  -2.0123   0.0000   0.0000   0.0000   0.7800
  -4.300   0.4108   0.00872   0.00223  -0.2025  0.2492  0.0052  -1.9168   0.0000   0.0000   0.0000   0.7508
  -4.200   0.4227   0.00872   0.00221  -0.2026  0.2462  0.0052  -1.8695   0.0000   0.0000   0.0000   0.7369
  -4.100   0.4345   0.00872   0.00218  -0.2027  0.2432  0.0052  -1.8244   0.0000   0.0000   0.0000   0.7237
  -4.000   0.4467   0.00869   0.00211  -0.2029  0.2402  0.0052  -1.8167   0.0000   0.0000   0.0000   0.7110
  -3.900   0.4586   0.00869   0.00208  -0.2031  0.2373  0.0052  -1.7867   0.0000   0.0000   0.0000   0.6991
  -3.800   0.4704   0.00869   0.00207  -0.2032  0.2343  0.0052  -1.7469   0.0000   0.0000   0.0000   0.6879
  -3.700   0.4822   0.00869   0.00206  -0.2033  0.2312  0.0052  -1.7064   0.0000   0.0000   0.0000   0.6773
  -3.600   0.4940   0.00868   0.00205  -0.2034  0.2277  0.0054  -1.6711   0.0000   0.0000   0.0000   0.6671
  -3.500   0.5068   0.00862   0.00203  -0.2038  0.2245  0.0139  -1.6796   0.0000   0.0000   0.0000   0.6571
  -3.400   0.5185   0.00862   0.00203  -0.2039  0.2222  0.0144  -1.6162   0.0000   0.0000   0.0000   0.6479
  -3.300   0.5302   0.00862   0.00203  -0.2040  0.2217  0.0147  -1.5522   0.0000   0.0000   0.0000   0.6391
  -3.200   0.5419   0.00862   0.00203  -0.2041  0.2213  0.0150  -1.4876   0.0000   0.0000   0.0000   0.6307
  -3.100   0.5536   0.00863   0.00204  -0.2042  0.2208  0.0153  -1.4219   0.0000   0.0000   0.0000   0.6227
  -3.000   0.5652   0.00864   0.00204  -0.2043  0.2202  0.0155  -1.3552   0.0000   0.0000   0.0000   0.6150
  -2.900   0.5768   0.00865   0.00206  -0.2044  0.2196  0.0157  -1.2883   0.0000   0.0000   0.0000   0.6077
  -2.800   0.5884   0.00866   0.00207  -0.2045  0.2187  0.0159  -1.2229   0.0000   0.0000   0.0000   0.6006
  -2.700   0.6001   0.00867   0.00208  -0.2045  0.2179  0.0161  -1.1609   0.0000   0.0000   0.0000   0.5938
  -2.600   0.6118   0.00867   0.00208  -0.2047  0.2176  0.0162  -1.1039   0.0000   0.0000   0.0000   0.5872
  -2.500   0.6220   0.00880   0.00214  -0.2045  0.1979  0.0162  -1.0578   0.0000   0.0000   0.0000   0.5812
  -2.400   0.6338   0.00882   0.00213  -0.2046  0.1940  0.0161  -1.0246   0.0000   0.0000   0.0000   0.5751
  -2.300   0.6442   0.00894   0.00214  -0.2045  0.1701  0.0156  -1.0122   0.0000   0.0000   0.0000   0.5694
  -2.200   0.6558   0.00895   0.00214  -0.2045  0.1697  0.0157  -0.9569   0.0000   0.0000   0.0000   0.5637
  -2.100   0.6674   0.00897   0.00215  -0.2046  0.1693  0.0159  -0.9262   0.0000   0.0000   0.0000   0.5582
  -2.000   0.6791   0.00898   0.00216  -0.2047  0.1689  0.0160  -0.9350   0.0000   0.0000   0.0000   0.5529
  -1.900   0.6907   0.00899   0.00217  -0.2048  0.1684  0.0162  -0.9437   0.0000   0.0000   0.0000   0.5478
  -1.800   0.7023   0.00900   0.00218  -0.2049  0.1679  0.0163  -0.9525   0.0000   0.0000   0.0000   0.5428
  -1.700   0.7139   0.00901   0.00219  -0.2050  0.1673  0.0164  -0.9613   0.0000   0.0000   0.0000   0.5380
  -1.600   0.7255   0.00902   0.00220  -0.2051  0.1665  0.0165  -0.9715   0.0000   0.0000   0.0000   0.5334
  -1.500   0.7371   0.00904   0.00221  -0.2052  0.1660  0.0165  -0.9818   0.0000   0.0000   0.0000   0.5289
  -1.300   0.7587   0.00920   0.00230  -0.2050  0.1460  0.0166  -1.0022   0.0000   0.0000   0.0000   0.5204
  -1.200   0.7701   0.00923   0.00232  -0.2051  0.1444  0.0167  -1.0126   0.0000   0.0000   0.0000   0.5163
  -1.100   0.7816   0.00925   0.00233  -0.2052  0.1429  0.0167  -1.0229   0.0000   0.0000   0.0000   0.5123
  -1.000   0.7930   0.00928   0.00235  -0.2052  0.1413  0.0168  -1.0332   0.0000   0.0000   0.0000   0.5085
  -0.900   0.8043   0.00932   0.00237  -0.2052  0.1398  0.0168  -1.0435   0.0000   0.0000   0.0000   0.5047
  -0.800   0.8157   0.00935   0.00239  -0.2053  0.1383  0.0168  -1.0538   0.0000   0.0000   0.0000   0.5010
  -0.700   0.8270   0.00938   0.00241  -0.2053  0.1362  0.0168  -1.0640   0.0000   0.0000   0.0000   0.4975
  -0.600   0.8383   0.00942   0.00243  -0.2053  0.1328  0.0169  -1.0743   0.0000   0.0000   0.0000   0.4940
  -0.500   0.8497   0.00945   0.00245  -0.2054  0.1286  0.0170  -1.0846   0.0000   0.0000   0.0000   0.4906
  -0.200   0.8840   0.00951   0.00249  -0.2056  0.1239  0.0186  -1.1158   0.0000   0.0000   0.0000   0.4810
  -0.100   0.8955   0.00954   0.00251  -0.2056  0.1237  0.0186  -1.1262   0.0000   0.0000   0.0000   0.4779
   0.000   0.9069   0.00956   0.00253  -0.2057  0.1234  0.0186  -1.1366   0.0000   0.0000   0.0000   0.4750


