xflr5 v6.59

 Calculated polar for: WORTMANN FX 63-137 AIRFOIL

 1 1 Reynolds number fixed          Mach number fixed         

 xtrf =   1.000 (top)        1.000 (bottom)
 Mach =   0.000     Re =     4.500 e 6     Ncrit =   9.000

  alpha     CL        CD       CDp       Cm    Top Xtr Bot Xtr   Cpmin    Chinge    XCp    
 ------- -------- --------- --------- -------- ------- ------- -------- --------- ---------
 -15.600  -0.5827   0.06180   0.05952  -0.1346  0.8162  0.0044  -11.9210   0.0000   0.0000   0.0000  -0.0138
 -15.500  -0.5578   0.06446   0.06218  -0.1328  0.7988  0.0044  -11.4627   0.0000   0.0000   0.0000  -0.0214
 -15.400  -0.5384   0.06618   0.06391  -0.1315  0.7924  0.0044  -11.1014   0.0000   0.0000   0.0000  -0.0282
 -15.300  -0.5191   0.06782   0.06558  -0.1303  0.7869  0.0044  -10.7440   0.0000   0.0000   0.0000  -0.0355
 -15.200  -0.5075   0.06821   0.06598  -0.1301  0.7818  0.0044  -10.5239   0.0000   0.0000   0.0000  -0.0409
 -15.100  -0.4995   0.06802   0.06579  -0.1302  0.7772  0.0044  -10.3664   0.0000   0.0000   0.0000  -0.0453
 -15.000  -0.4933   0.06751   0.06529  -0.1305  0.7745  0.0045  -10.2404   0.0000   0.0000   0.0000  -0.0493
 -14.900  -0.4893   0.06665   0.06442  -0.1310  0.7695  0.0045  -10.1536   0.0000   0.0000   0.0000  -0.0525
 -14.800  -0.4880   0.06538   0.06313  -0.1319  0.7615  0.0045  -10.1124   0.0000   0.0000   0.0000  -0.0547
 -14.700  -0.4885   0.06384   0.06157  -0.1329  0.7522  0.0045  -10.0995   0.0000   0.0000   0.0000  -0.0562
 -14.600  -0.4895   0.06213   0.05984  -0.1340  0.7478  0.0045  -10.0980   0.0000   0.0000   0.0000  -0.0576
 -14.500  -0.4916   0.06020   0.05790  -0.1353  0.7451  0.0045  -10.1139   0.0000   0.0000   0.0000  -0.0586
 -14.400  -0.4953   0.05794   0.05562  -0.1368  0.7429  0.0045  -10.1571   0.0000   0.0000   0.0000  -0.0592
 -14.300  -0.5005   0.05544   0.05311  -0.1386  0.7411  0.0045  -10.2240   0.0000   0.0000   0.0000  -0.0593
 -14.200  -0.5059   0.05283   0.05047  -0.1405  0.7394  0.0045  -10.2919   0.0000   0.0000   0.0000  -0.0597
 -14.100  -0.5123   0.05013   0.04774  -0.1426  0.7379  0.0045  -10.3736   0.0000   0.0000   0.0000  -0.0596
 -14.000  -0.5189   0.04740   0.04498  -0.1448  0.7364  0.0045  -10.4538   0.0000   0.0000   0.0000  -0.0597
 -13.900  -0.5260   0.04463   0.04217  -0.1471  0.7349  0.0045  -10.5402   0.0000   0.0000   0.0000  -0.0596
 -13.800  -0.5333   0.04186   0.03936  -0.1496  0.7333  0.0045  -10.6263   0.0000   0.0000   0.0000  -0.0597
 -13.700  -0.5412   0.03914   0.03659  -0.1520  0.7316  0.0045  -10.7149   0.0000   0.0000   0.0000  -0.0594
 -13.600  -0.5494   0.03644   0.03384  -0.1546  0.7299  0.0045  -10.8051   0.0000   0.0000   0.0000  -0.0591
 -13.500  -0.5580   0.03378   0.03111  -0.1572  0.7280  0.0045  -10.8989   0.0000   0.0000   0.0000  -0.0585
 -13.400  -0.5672   0.03113   0.02840  -0.1597  0.7259  0.0045  -10.9973   0.0000   0.0000   0.0000  -0.0577
 -13.300  -0.5773   0.02855   0.02574  -0.1621  0.7239  0.0045  -11.1018   0.0000   0.0000   0.0000  -0.0560
 -13.200  -0.5883   0.02629   0.02340  -0.1637  0.7221  0.0045  -11.2038   0.0000   0.0000   0.0000  -0.0527
  -7.400   0.0481   0.00878   0.00270  -0.1994  0.3502  0.0063  -4.0823   0.0000   0.0000   0.0000   4.5154
  -7.300   0.0601   0.00875   0.00266  -0.1995  0.3455  0.0062  -4.0070   0.0000   0.0000   0.0000   3.6700
  -7.200   0.0720   0.00872   0.00262  -0.1997  0.3408  0.0062  -3.9318   0.0000   0.0000   0.0000   3.1026
  -7.100   0.0841   0.00868   0.00257  -0.1999  0.3389  0.0061  -3.8568   0.0000   0.0000   0.0000   2.6952
  -7.000   0.0961   0.00865   0.00253  -0.2000  0.3381  0.0061  -3.7821   0.0000   0.0000   0.0000   2.3897
  -6.900   0.1082   0.00861   0.00248  -0.2002  0.3380  0.0061  -3.7075   0.0000   0.0000   0.0000   2.1519
  -6.800   0.1202   0.00858   0.00245  -0.2004  0.3372  0.0060  -3.6337   0.0000   0.0000   0.0000   1.9623
  -6.700   0.1322   0.00855   0.00241  -0.2005  0.3362  0.0060  -3.5603   0.0000   0.0000   0.0000   1.8075
  -6.600   0.1442   0.00853   0.00238  -0.2007  0.3350  0.0059  -3.4875   0.0000   0.0000   0.0000   1.6786
  -6.500   0.1562   0.00850   0.00235  -0.2008  0.3347  0.0059  -3.4149   0.0000   0.0000   0.0000   1.5691
  -6.400   0.1674   0.00854   0.00235  -0.2009  0.3223  0.0059  -3.3452   0.0000   0.0000   0.0000   1.4804
  -6.300   0.1785   0.00858   0.00234  -0.2009  0.3076  0.0058  -3.2758   0.0000   0.0000   0.0000   1.4033
  -6.200   0.1902   0.00858   0.00233  -0.2010  0.3036  0.0058  -3.2043   0.0000   0.0000   0.0000   1.3324
  -6.100   0.2019   0.00859   0.00231  -0.2011  0.2998  0.0058  -3.1327   0.0000   0.0000   0.0000   1.2699
  -6.000   0.2135   0.00859   0.00230  -0.2011  0.2959  0.0058  -3.0609   0.0000   0.0000   0.0000   1.2145
  -5.900   0.2251   0.00860   0.00229  -0.2012  0.2919  0.0058  -2.9880   0.0000   0.0000   0.0000   1.1647
  -5.800   0.2368   0.00860   0.00228  -0.2013  0.2877  0.0058  -2.9135   0.0000   0.0000   0.0000   1.1196
  -5.700   0.2485   0.00860   0.00227  -0.2014  0.2832  0.0057  -2.8365   0.0000   0.0000   0.0000   1.0786
  -5.600   0.2587   0.00873   0.00248  -0.2012  0.2796  0.0057  -2.6583   0.0000   0.0000   0.0000   1.0448
  -5.500   0.2705   0.00871   0.00247  -0.2013  0.2784  0.0057  -2.5890   0.0000   0.0000   0.0000   1.0101
  -5.400   0.2824   0.00870   0.00245  -0.2015  0.2777  0.0056  -2.5227   0.0000   0.0000   0.0000   0.9783
  -5.300   0.2943   0.00868   0.00243  -0.2016  0.2770  0.0056  -2.4588   0.0000   0.0000   0.0000   0.9490
  -5.200   0.3063   0.00866   0.00241  -0.2018  0.2761  0.0055  -2.3969   0.0000   0.0000   0.0000   0.9220
  -5.100   0.3182   0.00864   0.00239  -0.2019  0.2750  0.0055  -2.3367   0.0000   0.0000   0.0000   0.8969
  -5.000   0.3302   0.00862   0.00236  -0.2021  0.2747  0.0054  -2.2779   0.0000   0.0000   0.0000   0.8736
  -4.900   0.3413   0.00867   0.00237  -0.2021  0.2605  0.0054  -2.2231   0.0000   0.0000   0.0000   0.8532
  -4.800   0.3526   0.00871   0.00236  -0.2021  0.2488  0.0054  -2.1691   0.0000   0.0000   0.0000   0.8337
  -4.700   0.3644   0.00871   0.00234  -0.2022  0.2458  0.0053  -2.1150   0.0000   0.0000   0.0000   0.8149
  -4.600   0.3762   0.00870   0.00231  -0.2024  0.2429  0.0053  -2.0624   0.0000   0.0000   0.0000   0.7973
  -4.500   0.3880   0.00870   0.00229  -0.2025  0.2399  0.0052  -2.0113   0.0000   0.0000   0.0000   0.7807
  -4.400   0.3998   0.00870   0.00225  -0.2026  0.2366  0.0052  -1.9625   0.0000   0.0000   0.0000   0.7652
  -4.300   0.4116   0.00870   0.00223  -0.2027  0.2335  0.0052  -1.9140   0.0000   0.0000   0.0000   0.7505
  -4.200   0.4235   0.00869   0.00220  -0.2029  0.2304  0.0051  -1.8672   0.0000   0.0000   0.0000   0.7365
  -4.100   0.4355   0.00867   0.00217  -0.2030  0.2269  0.0051  -1.8226   0.0000   0.0000   0.0000   0.7233
  -4.000   0.4480   0.00862   0.00209  -0.2033  0.2239  0.0051  -1.8228   0.0000   0.0000   0.0000   0.7104
  -3.900   0.4601   0.00860   0.00206  -0.2034  0.2221  0.0051  -1.7870   0.0000   0.0000   0.0000   0.6985
  -3.800   0.4720   0.00859   0.00204  -0.2036  0.2217  0.0051  -1.7451   0.0000   0.0000   0.0000   0.6872
  -3.700   0.4840   0.00858   0.00203  -0.2037  0.2212  0.0051  -1.7023   0.0000   0.0000   0.0000   0.6766
  -3.600   0.4959   0.00857   0.00202  -0.2039  0.2207  0.0051  -1.6613   0.0000   0.0000   0.0000   0.6664
  -3.500   0.5087   0.00849   0.00199  -0.2042  0.2202  0.0136  -1.6819   0.0000   0.0000   0.0000   0.6564
  -3.400   0.5205   0.00849   0.00199  -0.2043  0.2195  0.0141  -1.6195   0.0000   0.0000   0.0000   0.6473
  -3.300   0.5322   0.00849   0.00199  -0.2044  0.2187  0.0145  -1.5575   0.0000   0.0000   0.0000   0.6385
  -3.200   0.5440   0.00850   0.00199  -0.2046  0.2181  0.0148  -1.4954   0.0000   0.0000   0.0000   0.6302
  -3.100   0.5557   0.00850   0.00200  -0.2047  0.2178  0.0150  -1.4329   0.0000   0.0000   0.0000   0.6222
  -3.000   0.5659   0.00864   0.00206  -0.2045  0.1968  0.0153  -1.3746   0.0000   0.0000   0.0000   0.6150
  -2.900   0.5774   0.00866   0.00207  -0.2045  0.1938  0.0155  -1.3121   0.0000   0.0000   0.0000   0.6077
  -2.800   0.5889   0.00868   0.00208  -0.2046  0.1918  0.0156  -1.2500   0.0000   0.0000   0.0000   0.6006
  -2.700   0.6004   0.00870   0.00210  -0.2047  0.1899  0.0158  -1.1896   0.0000   0.0000   0.0000   0.5938
  -2.600   0.6119   0.00872   0.00210  -0.2047  0.1879  0.0159  -1.1330   0.0000   0.0000   0.0000   0.5873
  -2.500   0.6234   0.00874   0.00211  -0.2048  0.1860  0.0159  -1.0829   0.0000   0.0000   0.0000   0.5810
  -2.400   0.6351   0.00876   0.00210  -0.2049  0.1829  0.0158  -1.0472   0.0000   0.0000   0.0000   0.5749
  -2.300   0.6464   0.00881   0.00210  -0.2049  0.1684  0.0154  -1.0196   0.0000   0.0000   0.0000   0.5691
  -2.200   0.6580   0.00882   0.00211  -0.2050  0.1678  0.0155  -0.9660   0.0000   0.0000   0.0000   0.5634
  -2.100   0.6696   0.00883   0.00211  -0.2051  0.1671  0.0157  -0.9276   0.0000   0.0000   0.0000   0.5579
  -2.000   0.6812   0.00884   0.00212  -0.2052  0.1663  0.0158  -0.9364   0.0000   0.0000   0.0000   0.5527
  -1.900   0.6929   0.00885   0.00213  -0.2053  0.1661  0.0159  -0.9451   0.0000   0.0000   0.0000   0.5475
  -1.800   0.7032   0.00898   0.00220  -0.2051  0.1493  0.0160  -0.9531   0.0000   0.0000   0.0000   0.5428
  -1.700   0.7145   0.00901   0.00222  -0.2052  0.1453  0.0162  -0.9625   0.0000   0.0000   0.0000   0.5380
  -1.600   0.7260   0.00904   0.00223  -0.2052  0.1438  0.0162  -0.9728   0.0000   0.0000   0.0000   0.5334
  -1.500   0.7374   0.00907   0.00225  -0.2053  0.1422  0.0163  -0.9831   0.0000   0.0000   0.0000   0.5289
  -1.400   0.7488   0.00909   0.00226  -0.2053  0.1407  0.0164  -0.9933   0.0000   0.0000   0.0000   0.5246
  -1.300   0.7603   0.00912   0.00228  -0.2054  0.1393  0.0165  -1.0036   0.0000   0.0000   0.0000   0.5203
  -1.200   0.7717   0.00915   0.00230  -0.2054  0.1378  0.0165  -1.0139   0.0000   0.0000   0.0000   0.5162
  -1.100   0.7831   0.00917   0.00231  -0.2055  0.1362  0.0166  -1.0242   0.0000   0.0000   0.0000   0.5123
  -1.000   0.7946   0.00920   0.00233  -0.2056  0.1347  0.0166  -1.0345   0.0000   0.0000   0.0000   0.5084
  -0.900   0.8061   0.00922   0.00234  -0.2056  0.1332  0.0167  -1.0448   0.0000   0.0000   0.0000   0.5046
  -0.800   0.8175   0.00924   0.00236  -0.2057  0.1314  0.0167  -1.0551   0.0000   0.0000   0.0000   0.5009
  -0.700   0.8290   0.00927   0.00237  -0.2057  0.1283  0.0167  -1.0654   0.0000   0.0000   0.0000   0.4974
  -0.600   0.8404   0.00929   0.00239  -0.2058  0.1249  0.0167  -1.0758   0.0000   0.0000   0.0000   0.4939
  -0.500   0.8519   0.00932   0.00241  -0.2058  0.1238  0.0168  -1.0861   0.0000   0.0000   0.0000   0.4905
  -0.400   0.8633   0.00934   0.00243  -0.2059  0.1235  0.0169  -1.0966   0.0000   0.0000   0.0000   0.4872
  -0.300   0.8748   0.00936   0.00245  -0.2060  0.1233  0.0170  -1.1070   0.0000   0.0000   0.0000   0.4840
   0.000   0.9092   0.00942   0.00249  -0.2062  0.1223  0.0184  -1.1383   0.0000   0.0000   0.0000   0.4749


