xflr5 v6.59

 Calculated polar for: WORTMANN FX 63-137 AIRFOIL

 1 1 Reynolds number fixed          Mach number fixed         

 xtrf =   1.000 (top)        1.000 (bottom)
 Mach =   0.000     Re =     2.000 e 6     Ncrit =   9.000

  alpha     CL        CD       CDp       Cm    Top Xtr Bot Xtr   Cpmin    Chinge    XCp    
 ------- -------- --------- --------- -------- ------- ------- -------- --------- ---------
 -13.800  -0.5728   0.06524   0.06356  -0.0995  0.9930  0.0068  -9.8875   0.0000   0.0000   0.0000   0.0503
 -13.700  -0.6095   0.05555   0.05374  -0.1079  0.9917  0.0067  -10.5393   0.0000   0.0000   0.0000   0.0481
 -13.500  -0.6377   0.04538   0.04339  -0.1183  0.9873  0.0067  -11.0207   0.0000   0.0000   0.0000   0.0409
 -13.400  -0.6440   0.04152   0.03945  -0.1231  0.9846  0.0067  -11.1408   0.0000   0.0000   0.0000   0.0357
 -13.300  -0.6497   0.03853   0.03639  -0.1265  0.9805  0.0067  -11.2191   0.0000   0.0000   0.0000   0.0326
 -13.100  -0.6569   0.03359   0.03133  -0.1323  0.9669  0.0067  -11.2971   0.0000   0.0000   0.0000   0.0267
 -13.000  -0.6509   0.03085   0.02849  -0.1376  0.9606  0.0067  -11.2687   0.0000   0.0000   0.0000   0.0168
 -12.900  -0.6348   0.02794   0.02544  -0.1452  0.9541  0.0067  -11.1669   0.0000   0.0000   0.0000  -0.0007
 -12.800  -0.6096   0.02517   0.02252  -0.1544  0.9491  0.0068  -10.9929   0.0000   0.0000   0.0000  -0.0258
 -12.700  -0.5787   0.02273   0.01992  -0.1641  0.9421  0.0068  -10.7664   0.0000   0.0000   0.0000  -0.0567
 -12.600  -0.5488   0.02080   0.01781  -0.1724  0.9287  0.0068  -10.5322   0.0000   0.0000   0.0000  -0.0882
 -12.500  -0.5302   0.01952   0.01636  -0.1772  0.9091  0.0068  -10.3615   0.0000   0.0000   0.0000  -0.1086
 -12.400  -0.5186   0.01860   0.01529  -0.1799  0.8910  0.0068  -10.2313   0.0000   0.0000   0.0000  -0.1213
 -12.300  -0.5086   0.01785   0.01440  -0.1817  0.8765  0.0068  -10.1078   0.0000   0.0000   0.0000  -0.1319
 -12.200  -0.4988   0.01723   0.01368  -0.1830  0.8648  0.0068  -9.9794   0.0000   0.0000   0.0000  -0.1417
 -12.100  -0.4903   0.01678   0.01311  -0.1836  0.8518  0.0068  -9.8573   0.0000   0.0000   0.0000  -0.1492
 -12.000  -0.4807   0.01632   0.01256  -0.1843  0.8425  0.0068  -9.7262   0.0000   0.0000   0.0000  -0.1583
 -11.900  -0.4717   0.01592   0.01207  -0.1848  0.8328  0.0068  -9.5980   0.0000   0.0000   0.0000  -0.1666
 -11.800  -0.4616   0.01552   0.01159  -0.1853  0.8259  0.0068  -9.4623   0.0000   0.0000   0.0000  -0.1767
 -11.700  -0.4511   0.01515   0.01114  -0.1859  0.8189  0.0068  -9.3247   0.0000   0.0000   0.0000  -0.1875
 -11.600  -0.4411   0.01482   0.01072  -0.1863  0.8104  0.0068  -9.1890   0.0000   0.0000   0.0000  -0.1979
 -11.500  -0.4310   0.01452   0.01034  -0.1867  0.8028  0.0068  -9.0525   0.0000   0.0000   0.0000  -0.2089
 -11.400  -0.4200   0.01420   0.00996  -0.1872  0.7980  0.0068  -8.9099   0.0000   0.0000   0.0000  -0.2217
 -11.300  -0.4090   0.01391   0.00960  -0.1876  0.7931  0.0067  -8.7676   0.0000   0.0000   0.0000  -0.2351
 -11.200  -0.3981   0.01364   0.00927  -0.1880  0.7882  0.0067  -8.6260   0.0000   0.0000   0.0000  -0.2490
 -11.100  -0.3872   0.01340   0.00895  -0.1883  0.7828  0.0067  -8.4855   0.0000   0.0000   0.0000  -0.2633
 -11.000  -0.3762   0.01316   0.00865  -0.1887  0.7776  0.0067  -8.3438   0.0000   0.0000   0.0000  -0.2789
 -10.900  -0.3644   0.01291   0.00836  -0.1892  0.7755  0.0067  -8.1976   0.0000   0.0000   0.0000  -0.2969
 -10.800  -0.3527   0.01267   0.00808  -0.1896  0.7727  0.0067  -8.0523   0.0000   0.0000   0.0000  -0.3159
 -10.700  -0.3410   0.01246   0.00782  -0.1900  0.7687  0.0067  -7.9082   0.0000   0.0000   0.0000  -0.3359
 -10.600  -0.3295   0.01226   0.00757  -0.1903  0.7637  0.0066  -7.7658   0.0000   0.0000   0.0000  -0.3569
 -10.500  -0.3184   0.01209   0.00733  -0.1905  0.7576  0.0066  -7.6260   0.0000   0.0000   0.0000  -0.3785
 -10.400  -0.3074   0.01193   0.00711  -0.1907  0.7508  0.0066  -7.4878   0.0000   0.0000   0.0000  -0.4012
 -10.300  -0.2956   0.01176   0.00689  -0.1911  0.7472  0.0066  -7.3460   0.0000   0.0000   0.0000  -0.4276
 -10.200  -0.2839   0.01159   0.00668  -0.1914  0.7438  0.0066  -7.2047   0.0000   0.0000   0.0000  -0.4564
 -10.100  -0.2721   0.01143   0.00648  -0.1917  0.7402  0.0066  -7.0644   0.0000   0.0000   0.0000  -0.4874
 -10.000  -0.2604   0.01128   0.00629  -0.1919  0.7366  0.0065  -6.9253   0.0000   0.0000   0.0000  -0.5210
  -9.900  -0.2488   0.01114   0.00610  -0.1922  0.7329  0.0065  -6.7873   0.0000   0.0000   0.0000  -0.5576
  -9.800  -0.2371   0.01101   0.00592  -0.1925  0.7293  0.0065  -6.6502   0.0000   0.0000   0.0000  -0.5978
  -9.700  -0.2254   0.01087   0.00575  -0.1927  0.7257  0.0065  -6.5136   0.0000   0.0000   0.0000  -0.6425
  -9.600  -0.2135   0.01074   0.00558  -0.1930  0.7227  0.0065  -6.3952   0.0000   0.0000   0.0000  -0.6929
  -9.500  -0.2015   0.01060   0.00542  -0.1933  0.7208  0.0065  -6.2781   0.0000   0.0000   0.0000  -0.7502
  -9.400  -0.1893   0.01045   0.00526  -0.1937  0.7200  0.0064  -6.1609   0.0000   0.0000   0.0000  -0.8161
  -9.300  -0.1770   0.01031   0.00509  -0.1940  0.7190  0.0064  -6.0452   0.0000   0.0000   0.0000  -0.8911
  -9.200  -0.1648   0.01017   0.00493  -0.1944  0.7178  0.0064  -5.9287   0.0000   0.0000   0.0000  -0.9774
  -9.100  -0.1525   0.01003   0.00479  -0.1947  0.7164  0.0064  -5.8128   0.0000   0.0000   0.0000  -1.0775
  -9.000  -0.1403   0.00990   0.00465  -0.1950  0.7147  0.0064  -5.6978   0.0000   0.0000   0.0000  -1.1944
  -8.900  -0.1282   0.00979   0.00452  -0.1953  0.7114  0.0064  -5.5844   0.0000   0.0000   0.0000  -1.3316
  -8.800  -0.1165   0.00970   0.00439  -0.1955  0.7052  0.0064  -5.4734   0.0000   0.0000   0.0000  -1.4918
  -8.700  -0.1054   0.00964   0.00428  -0.1955  0.6956  0.0063  -5.3662   0.0000   0.0000   0.0000  -1.6751
  -8.600  -0.0939   0.00957   0.00417  -0.1957  0.6881  0.0063  -5.2579   0.0000   0.0000   0.0000  -1.9114
  -8.500  -0.0821   0.00950   0.00406  -0.1959  0.6823  0.0063  -5.1495   0.0000   0.0000   0.0000  -2.2203
  -8.400  -0.0706   0.00944   0.00395  -0.1960  0.6758  0.0063  -5.0427   0.0000   0.0000   0.0000  -2.6251
  -8.300  -0.0592   0.00940   0.00385  -0.1961  0.6688  0.0063  -4.9374   0.0000   0.0000   0.0000  -3.1800
  -8.200  -0.0476   0.00934   0.00376  -0.1962  0.6615  0.0063  -4.8320   0.0000   0.0000   0.0000  -4.0183
  -8.100  -0.0355   0.00926   0.00366  -0.1965  0.6591  0.0063  -4.7251   0.0000   0.0000   0.0000  -5.4783
  -8.000  -0.0233   0.00919   0.00357  -0.1967  0.6569  0.0063  -4.6191   0.0000   0.0000   0.0000  -8.4593
  -7.900  -0.0113   0.00912   0.00348  -0.1969  0.6543  0.0063  -4.5140   0.0000   0.0000   0.0000  -17.8222
  -7.800   0.0008   0.00905   0.00340  -0.1971  0.6510  0.0063  -4.4102   0.0000   0.0000   0.0000  264.9613
  -7.700   0.0126   0.00900   0.00332  -0.1973  0.6451  0.0063  -4.3081   0.0000   0.0000   0.0000  16.4417
  -7.600   0.0240   0.00898   0.00325  -0.1974  0.6368  0.0063  -4.2086   0.0000   0.0000   0.0000   8.7340
  -7.500   0.0355   0.00895   0.00318  -0.1975  0.6288  0.0063  -4.1096   0.0000   0.0000   0.0000   5.9862
  -7.400   0.0474   0.00891   0.00310  -0.1976  0.6247  0.0063  -4.0326   0.0000   0.0000   0.0000   4.5492
  -7.300   0.0592   0.00886   0.00303  -0.1978  0.6206  0.0063  -3.9575   0.0000   0.0000   0.0000   3.6889
  -7.200   0.0710   0.00882   0.00297  -0.1980  0.6163  0.0063  -3.8829   0.0000   0.0000   0.0000   3.1177
  -7.100   0.0828   0.00879   0.00291  -0.1981  0.6118  0.0064  -3.8089   0.0000   0.0000   0.0000   2.7114
  -7.000   0.0945   0.00876   0.00285  -0.1982  0.6070  0.0064  -3.7354   0.0000   0.0000   0.0000   2.4072
  -6.900   0.1064   0.00872   0.00278  -0.1984  0.6041  0.0064  -3.6613   0.0000   0.0000   0.0000   2.1662
  -6.800   0.1183   0.00869   0.00272  -0.1986  0.5994  0.0064  -3.5882   0.0000   0.0000   0.0000   1.9746
  -6.700   0.1303   0.00864   0.00267  -0.1988  0.5968  0.0064  -3.5149   0.0000   0.0000   0.0000   1.8161
  -6.600   0.1424   0.00860   0.00261  -0.1990  0.5954  0.0063  -3.4416   0.0000   0.0000   0.0000   1.6838
  -6.500   0.1545   0.00855   0.00256  -0.1991  0.5935  0.0063  -3.3686   0.0000   0.0000   0.0000   1.5726
  -6.400   0.1665   0.00851   0.00251  -0.1993  0.5908  0.0063  -3.2957   0.0000   0.0000   0.0000   1.4778
  -6.300   0.1783   0.00849   0.00247  -0.1995  0.5858  0.0063  -3.2231   0.0000   0.0000   0.0000   1.3967
  -6.200   0.1896   0.00850   0.00244  -0.1995  0.5759  0.0063  -3.1514   0.0000   0.0000   0.0000   1.3280
  -6.100   0.2007   0.00853   0.00242  -0.1995  0.5645  0.0063  -3.0779   0.0000   0.0000   0.0000   1.2681
  -6.000   0.2123   0.00853   0.00240  -0.1996  0.5592  0.0063  -2.9980   0.0000   0.0000   0.0000   1.2126
  -5.900   0.2237   0.00854   0.00241  -0.1997  0.5546  0.0063  -2.9066   0.0000   0.0000   0.0000   1.1633
  -5.800   0.2342   0.00863   0.00254  -0.1995  0.5493  0.0063  -2.7788   0.0000   0.0000   0.0000   1.1212
  -5.700   0.2452   0.00868   0.00259  -0.1995  0.5435  0.0063  -2.6892   0.0000   0.0000   0.0000   1.0817
  -5.600   0.2567   0.00869   0.00258  -0.1996  0.5375  0.0063  -2.6190   0.0000   0.0000   0.0000   1.0444
  -5.500   0.2684   0.00868   0.00256  -0.1997  0.5325  0.0063  -2.5506   0.0000   0.0000   0.0000   1.0098
  -5.400   0.2804   0.00865   0.00253  -0.1998  0.5310  0.0063  -2.4837   0.0000   0.0000   0.0000   0.9777
  -5.300   0.2923   0.00862   0.00250  -0.2000  0.5291  0.0063  -2.4188   0.0000   0.0000   0.0000   0.9482
  -5.200   0.3042   0.00859   0.00247  -0.2002  0.5263  0.0063  -2.3556   0.0000   0.0000   0.0000   0.9211
  -5.100   0.3160   0.00858   0.00244  -0.2003  0.5218  0.0063  -2.2943   0.0000   0.0000   0.0000   0.8962
  -5.000   0.3268   0.00864   0.00244  -0.2002  0.5064  0.0063  -2.2370   0.0000   0.0000   0.0000   0.8745
  -4.900   0.3380   0.00867   0.00243  -0.2003  0.4954  0.0063  -2.1796   0.0000   0.0000   0.0000   0.8537
  -4.800   0.3495   0.00868   0.00240  -0.2004  0.4894  0.0063  -2.1224   0.0000   0.0000   0.0000   0.8337
  -4.700   0.3611   0.00868   0.00238  -0.2005  0.4836  0.0063  -2.0664   0.0000   0.0000   0.0000   0.8151
  -4.600   0.3726   0.00870   0.00236  -0.2005  0.4775  0.0063  -2.0114   0.0000   0.0000   0.0000   0.7976
  -4.500   0.3841   0.00870   0.00233  -0.2006  0.4706  0.0064  -1.9570   0.0000   0.0000   0.0000   0.7811
  -4.400   0.3960   0.00869   0.00230  -0.2008  0.4666  0.0064  -1.9031   0.0000   0.0000   0.0000   0.7654
  -4.300   0.4080   0.00866   0.00227  -0.2009  0.4649  0.0065  -1.8487   0.0000   0.0000   0.0000   0.7504
  -4.200   0.4198   0.00865   0.00225  -0.2011  0.4625  0.0066  -1.7940   0.0000   0.0000   0.0000   0.7364
  -4.100   0.4314   0.00866   0.00225  -0.2011  0.4587  0.0067  -1.7373   0.0000   0.0000   0.0000   0.7233
  -4.000   0.4421   0.00873   0.00231  -0.2010  0.4508  0.0071  -1.6703   0.0000   0.0000   0.0000   0.7114
  -3.900   0.4500   0.00902   0.00257  -0.2004  0.4330  0.0093  -1.5677   0.0000   0.0000   0.0000   0.7016
  -3.800   0.4676   0.00859   0.00203  -0.2018  0.4270  0.0155  -1.7373   0.0000   0.0000   0.0000   0.6875
  -3.700   0.4784   0.00866   0.00210  -0.2017  0.4220  0.0160  -1.6456   0.0000   0.0000   0.0000   0.6773
  -3.600   0.4892   0.00872   0.00217  -0.2017  0.4170  0.0163  -1.5590   0.0000   0.0000   0.0000   0.6675
  -3.500   0.5000   0.00879   0.00225  -0.2016  0.4114  0.0166  -1.4769   0.0000   0.0000   0.0000   0.6582
  -3.400   0.5108   0.00885   0.00235  -0.2016  0.4057  0.0169  -1.3948   0.0000   0.0000   0.0000   0.6493
  -2.900   0.5702   0.00878   0.00227  -0.2024  0.3941  0.0212  -1.1299   0.0000   0.0000   0.0000   0.6083
  -2.800   0.5816   0.00881   0.00225  -0.2025  0.3846  0.0210  -1.0868   0.0000   0.0000   0.0000   0.6012
  -2.700   0.5922   0.00891   0.00226  -0.2024  0.3687  0.0208  -1.0454   0.0000   0.0000   0.0000   0.5946
  -2.600   0.6039   0.00892   0.00223  -0.2025  0.3641  0.0206  -1.0020   0.0000   0.0000   0.0000   0.5880
  -2.500   0.6155   0.00893   0.00221  -0.2026  0.3598  0.0204  -0.9588   0.0000   0.0000   0.0000   0.5816
  -2.400   0.6270   0.00895   0.00219  -0.2027  0.3554  0.0200  -0.9157   0.0000   0.0000   0.0000   0.5755
  -2.300   0.6385   0.00898   0.00217  -0.2027  0.3513  0.0193  -0.9013   0.0000   0.0000   0.0000   0.5695
  -2.200   0.6501   0.00900   0.00216  -0.2028  0.3462  0.0192  -0.9101   0.0000   0.0000   0.0000   0.5638
  -2.100   0.6617   0.00901   0.00214  -0.2029  0.3405  0.0192  -0.9188   0.0000   0.0000   0.0000   0.5583
  -2.000   0.6735   0.00901   0.00213  -0.2030  0.3379  0.0191  -0.9279   0.0000   0.0000   0.0000   0.5529
  -1.900   0.6852   0.00902   0.00211  -0.2032  0.3351  0.0191  -0.9374   0.0000   0.0000   0.0000   0.5477
  -1.800   0.6968   0.00904   0.00211  -0.2032  0.3302  0.0191  -0.9473   0.0000   0.0000   0.0000   0.5427
  -1.700   0.7059   0.00926   0.00219  -0.2029  0.3027  0.0190  -0.9584   0.0000   0.0000   0.0000   0.5383
  -1.600   0.7166   0.00935   0.00221  -0.2028  0.2929  0.0190  -0.9607   0.0000   0.0000   0.0000   0.5337
  -1.500   0.7274   0.00943   0.00223  -0.2028  0.2820  0.0189  -0.9706   0.0000   0.0000   0.0000   0.5293
  -1.400   0.7390   0.00945   0.00223  -0.2028  0.2776  0.0191  -0.9811   0.0000   0.0000   0.0000   0.5248
  -1.300   0.7505   0.00947   0.00223  -0.2029  0.2751  0.0193  -0.9919   0.0000   0.0000   0.0000   0.5205
  -1.200   0.7621   0.00948   0.00223  -0.2030  0.2725  0.0196  -1.0028   0.0000   0.0000   0.0000   0.5164
  -1.100   0.7717   0.00967   0.00231  -0.2027  0.2501  0.0199  -1.0170   0.0000   0.0000   0.0000   0.5125
  -1.000   0.7830   0.00971   0.00232  -0.2028  0.2461  0.0201  -1.0267   0.0000   0.0000   0.0000   0.5086
  -0.900   0.7942   0.00975   0.00234  -0.2028  0.2424  0.0203  -1.0351   0.0000   0.0000   0.0000   0.5048
  -0.800   0.8054   0.00979   0.00236  -0.2028  0.2387  0.0203  -1.0422   0.0000   0.0000   0.0000   0.5012
  -0.700   0.8166   0.00984   0.00238  -0.2028  0.2350  0.0203  -1.0488   0.0000   0.0000   0.0000   0.4976
  -0.600   0.8278   0.00989   0.00240  -0.2028  0.2311  0.0201  -1.0560   0.0000   0.0000   0.0000   0.4941
  -0.500   0.8391   0.00993   0.00242  -0.2029  0.2266  0.0200  -1.0640   0.0000   0.0000   0.0000   0.4906
  -0.400   0.8504   0.00995   0.00244  -0.2029  0.2230  0.0199  -1.0731   0.0000   0.0000   0.0000   0.4873
  -0.300   0.8619   0.00997   0.00245  -0.2030  0.2215  0.0198  -1.0833   0.0000   0.0000   0.0000   0.4841
  -0.200   0.8733   0.01000   0.00247  -0.2030  0.2199  0.0197  -1.0938   0.0000   0.0000   0.0000   0.4809
  -0.100   0.8845   0.01004   0.00250  -0.2030  0.2163  0.0196  -1.1047   0.0000   0.0000   0.0000   0.4778
   0.000   0.8938   0.01025   0.00262  -0.2027  0.1952  0.0196  -1.1187   0.0000   0.0000   0.0000   0.4749


