xflr5 v6.59

 Calculated polar for: WORTMANN FX 63-137 AIRFOIL

 1 1 Reynolds number fixed          Mach number fixed         

 xtrf =   1.000 (top)        1.000 (bottom)
 Mach =   0.000     Re =     2.700 e 6     Ncrit =   9.000

  alpha     CL        CD       CDp       Cm    Top Xtr Bot Xtr   Cpmin    Chinge    XCp    
 ------- -------- --------- --------- -------- ------- ------- -------- --------- ---------
 -13.500  -0.1157   0.11863   0.11622  -0.1041  0.7386  0.0055  -2.7479   0.0000   0.0000   0.0000  -0.7402
 -13.400  -0.1127   0.11758   0.11514  -0.1046  0.7330  0.0058  -2.7197   0.0000   0.0000   0.0000  -0.7701
 -13.300  -0.1095   0.11659   0.11412  -0.1050  0.7265  0.0060  -2.6867   0.0000   0.0000   0.0000  -0.8035
 -13.200  -0.1062   0.11558   0.11309  -0.1055  0.7208  0.0062  -2.6540   0.0000   0.0000   0.0000  -0.8400
 -13.100  -0.1029   0.11453   0.11203  -0.1061  0.7190  0.0063  -2.6235   0.0000   0.0000   0.0000  -0.8796
 -13.000  -0.0998   0.11344   0.11094  -0.1066  0.7163  0.0065  -2.5975   0.0000   0.0000   0.0000  -0.9194
 -12.900  -0.0970   0.11229   0.10978  -0.1071  0.7119  0.0068  -2.5801   0.0000   0.0000   0.0000  -0.9569
 -12.800  -0.0948   0.11108   0.10855  -0.1077  0.7038  0.0071  -2.5725   0.0000   0.0000   0.0000  -0.9895
 -12.700  -0.0932   0.10978   0.10720  -0.1081  0.6934  0.0074  -2.5775   0.0000   0.0000   0.0000  -1.0159
 -12.600  -0.0951   0.10722   0.10464  -0.1091  0.6924  0.0081  -2.6933   0.0000   0.0000   0.0000  -1.0006
 -12.500  -0.1047   0.10238   0.09988  -0.1110  0.7082  0.0085  -3.0203   0.0000   0.0000   0.0000  -0.9053
 -11.900  -0.0634   0.10075   0.09804  -0.1124  0.6604  0.0099  -2.4443   0.0000   0.0000   0.0000  -1.6678
 -11.800  -0.0622   0.09907   0.09637  -0.1131  0.6597  0.0099  -2.4760   0.0000   0.0000   0.0000  -1.7177
  -9.700  -0.2219   0.01025   0.00523  -0.1943  0.6821  0.0065  -6.5132   0.0000   0.0000   0.0000  -0.6638
  -9.600  -0.2099   0.01013   0.00508  -0.1945  0.6793  0.0065  -6.3756   0.0000   0.0000   0.0000  -0.7165
  -9.500  -0.1980   0.01001   0.00493  -0.1948  0.6766  0.0064  -6.2533   0.0000   0.0000   0.0000  -0.7756
  -9.400  -0.1860   0.00990   0.00478  -0.1950  0.6737  0.0064  -6.1377   0.0000   0.0000   0.0000  -0.8421
  -9.300  -0.1743   0.00980   0.00463  -0.1953  0.6683  0.0064  -6.0247   0.0000   0.0000   0.0000  -0.9160
  -9.200  -0.1626   0.00971   0.00450  -0.1955  0.6604  0.0063  -5.9111   0.0000   0.0000   0.0000  -1.0010
  -9.100  -0.1504   0.00958   0.00436  -0.1958  0.6579  0.0063  -5.7961   0.0000   0.0000   0.0000  -1.1036
  -9.000  -0.1383   0.00947   0.00422  -0.1961  0.6526  0.0063  -5.6825   0.0000   0.0000   0.0000  -1.2226
  -8.900  -0.1276   0.00943   0.00411  -0.1961  0.6339  0.0063  -5.5758   0.0000   0.0000   0.0000  -1.3462
  -8.800  -0.1162   0.00938   0.00400  -0.1962  0.6210  0.0063  -5.4669   0.0000   0.0000   0.0000  -1.5020
  -8.700  -0.1049   0.00934   0.00390  -0.1963  0.6112  0.0062  -5.3585   0.0000   0.0000   0.0000  -1.6919
  -8.600  -0.0934   0.00929   0.00380  -0.1965  0.6010  0.0062  -5.2505   0.0000   0.0000   0.0000  -1.9305
  -8.500  -0.0814   0.00922   0.00370  -0.1967  0.5967  0.0062  -5.1406   0.0000   0.0000   0.0000  -2.2548
  -8.400  -0.0692   0.00914   0.00360  -0.1969  0.5953  0.0062  -5.0309   0.0000   0.0000   0.0000  -2.6976
  -8.300  -0.0570   0.00906   0.00351  -0.1972  0.5935  0.0062  -4.9222   0.0000   0.0000   0.0000  -3.3275
  -8.200  -0.0450   0.00899   0.00342  -0.1974  0.5907  0.0061  -4.8146   0.0000   0.0000   0.0000  -4.2910
  -8.100  -0.0329   0.00893   0.00333  -0.1976  0.5874  0.0061  -4.7082   0.0000   0.0000   0.0000  -5.9513
  -7.900  -0.0106   0.00893   0.00320  -0.1977  0.5605  0.0061  -4.5055   0.0000   0.0000   0.0000  -19.0612
  -7.800   0.0012   0.00889   0.00313  -0.1978  0.5548  0.0061  -4.4028   0.0000   0.0000   0.0000  172.1767
  -7.700   0.0129   0.00886   0.00307  -0.1980  0.5491  0.0060  -4.3012   0.0000   0.0000   0.0000  16.1097
  -7.600   0.0245   0.00883   0.00301  -0.1981  0.5433  0.0060  -4.2061   0.0000   0.0000   0.0000   8.5748
  -7.500   0.0363   0.00880   0.00294  -0.1983  0.5366  0.0060  -4.1308   0.0000   0.0000   0.0000   5.8782
  -7.400   0.0483   0.00876   0.00288  -0.1984  0.5323  0.0060  -4.0552   0.0000   0.0000   0.0000   4.4821
  -7.300   0.0604   0.00871   0.00282  -0.1986  0.5308  0.0060  -3.9797   0.0000   0.0000   0.0000   3.6364
  -7.200   0.0725   0.00866   0.00276  -0.1988  0.5289  0.0060  -3.9046   0.0000   0.0000   0.0000   3.0742
  -7.100   0.0844   0.00862   0.00271  -0.1990  0.5257  0.0060  -3.8302   0.0000   0.0000   0.0000   2.6746
  -6.900   0.1079   0.00858   0.00260  -0.1993  0.5144  0.0060  -3.6829   0.0000   0.0000   0.0000   2.1476
  -6.800   0.1188   0.00863   0.00258  -0.1992  0.4978  0.0060  -3.6130   0.0000   0.0000   0.0000   1.9733
  -6.700   0.1304   0.00862   0.00254  -0.1993  0.4919  0.0060  -3.5407   0.0000   0.0000   0.0000   1.8192
  -6.600   0.1420   0.00861   0.00251  -0.1994  0.4861  0.0060  -3.4690   0.0000   0.0000   0.0000   1.6910
  -6.500   0.1536   0.00862   0.00247  -0.1995  0.4800  0.0060  -3.3979   0.0000   0.0000   0.0000   1.5827
  -6.400   0.1652   0.00861   0.00244  -0.1996  0.4733  0.0060  -3.3269   0.0000   0.0000   0.0000   1.4891
  -6.300   0.1770   0.00859   0.00241  -0.1998  0.4676  0.0060  -3.2557   0.0000   0.0000   0.0000   1.4066
  -6.200   0.1890   0.00856   0.00237  -0.1999  0.4659  0.0060  -3.1842   0.0000   0.0000   0.0000   1.3336
  -6.100   0.2010   0.00853   0.00234  -0.2001  0.4641  0.0060  -3.1130   0.0000   0.0000   0.0000   1.2694
  -6.000   0.2129   0.00851   0.00231  -0.2003  0.4612  0.0059  -3.0421   0.0000   0.0000   0.0000   1.2127
  -5.800   0.2351   0.00859   0.00230  -0.2003  0.4369  0.0059  -2.9024   0.0000   0.0000   0.0000   1.1211
  -5.700   0.2466   0.00861   0.00229  -0.2003  0.4298  0.0059  -2.8283   0.0000   0.0000   0.0000   1.0805
  -5.600   0.2580   0.00863   0.00229  -0.2004  0.4245  0.0059  -2.7481   0.0000   0.0000   0.0000   1.0436
  -5.500   0.2684   0.00873   0.00242  -0.2002  0.4193  0.0059  -2.6122   0.0000   0.0000   0.0000   1.0118
  -5.400   0.2797   0.00876   0.00245  -0.2003  0.4139  0.0059  -2.5331   0.0000   0.0000   0.0000   0.9810
  -5.300   0.2913   0.00877   0.00243  -0.2003  0.4077  0.0059  -2.4671   0.0000   0.0000   0.0000   0.9519
  -5.200   0.3031   0.00875   0.00242  -0.2005  0.4027  0.0058  -2.4028   0.0000   0.0000   0.0000   0.9248
  -5.100   0.3150   0.00873   0.00239  -0.2006  0.4014  0.0058  -2.3399   0.0000   0.0000   0.0000   0.8994
  -5.000   0.3270   0.00871   0.00236  -0.2008  0.4000  0.0058  -2.2788   0.0000   0.0000   0.0000   0.8758
  -4.900   0.3389   0.00869   0.00234  -0.2010  0.3983  0.0058  -2.2193   0.0000   0.0000   0.0000   0.8540
  -4.800   0.3509   0.00867   0.00231  -0.2011  0.3960  0.0058  -2.1613   0.0000   0.0000   0.0000   0.8337
  -4.700   0.3627   0.00865   0.00229  -0.2013  0.3930  0.0058  -2.1048   0.0000   0.0000   0.0000   0.8147
  -4.600   0.3730   0.00877   0.00231  -0.2011  0.3700  0.0058  -2.0537   0.0000   0.0000   0.0000   0.7986
  -4.500   0.3847   0.00877   0.00229  -0.2012  0.3654  0.0058  -2.0001   0.0000   0.0000   0.0000   0.7820
  -4.400   0.3963   0.00878   0.00226  -0.2013  0.3607  0.0058  -1.9489   0.0000   0.0000   0.0000   0.7664
  -4.300   0.4079   0.00878   0.00224  -0.2014  0.3562  0.0058  -1.8979   0.0000   0.0000   0.0000   0.7517
  -4.200   0.4196   0.00879   0.00222  -0.2015  0.3516  0.0058  -1.8481   0.0000   0.0000   0.0000   0.7378
  -4.100   0.4313   0.00879   0.00219  -0.2016  0.3468  0.0059  -1.7996   0.0000   0.0000   0.0000   0.7246
  -4.000   0.4431   0.00879   0.00217  -0.2018  0.3418  0.0059  -1.7523   0.0000   0.0000   0.0000   0.7120
  -3.900   0.4551   0.00877   0.00215  -0.2019  0.3390  0.0060  -1.7062   0.0000   0.0000   0.0000   0.7000
  -3.800   0.4669   0.00876   0.00214  -0.2020  0.3381  0.0063  -1.6585   0.0000   0.0000   0.0000   0.6887
  -3.700   0.4732   0.00915   0.00261  -0.2009  0.3373  0.0087  -1.4623   0.0000   0.0000   0.0000   0.6803
  -3.600   0.4927   0.00860   0.00199  -0.2028  0.3359  0.0150  -1.6807   0.0000   0.0000   0.0000   0.6668
  -3.500   0.5041   0.00862   0.00202  -0.2028  0.3341  0.0154  -1.5988   0.0000   0.0000   0.0000   0.6573
  -3.400   0.5155   0.00865   0.00205  -0.2028  0.3329  0.0158  -1.5161   0.0000   0.0000   0.0000   0.6482
  -3.300   0.5259   0.00875   0.00212  -0.2027  0.3191  0.0161  -1.4395   0.0000   0.0000   0.0000   0.6399
  -3.200   0.5364   0.00885   0.00219  -0.2026  0.3066  0.0164  -1.3666   0.0000   0.0000   0.0000   0.6319
  -3.100   0.5476   0.00889   0.00223  -0.2026  0.3024  0.0166  -1.2950   0.0000   0.0000   0.0000   0.6240
  -3.000   0.5587   0.00893   0.00228  -0.2027  0.2983  0.0168  -1.2257   0.0000   0.0000   0.0000   0.6164
  -2.300   0.6409   0.00897   0.00213  -0.2035  0.2740  0.0167  -0.9120   0.0000   0.0000   0.0000   0.5695
  -2.200   0.6502   0.00917   0.00222  -0.2032  0.2470  0.0168  -0.9078   0.0000   0.0000   0.0000   0.5643
  -2.100   0.6608   0.00926   0.00227  -0.2031  0.2374  0.0169  -0.9178   0.0000   0.0000   0.0000   0.5590
  -2.000   0.6717   0.00933   0.00230  -0.2031  0.2281  0.0171  -0.9274   0.0000   0.0000   0.0000   0.5537
  -1.200   0.7629   0.00958   0.00239  -0.2035  0.1930  0.0188  -1.0018   0.0000   0.0000   0.0000   0.5167
  -1.100   0.7743   0.00961   0.00240  -0.2035  0.1905  0.0187  -1.0125   0.0000   0.0000   0.0000   0.5127
  -1.000   0.7857   0.00965   0.00241  -0.2036  0.1881  0.0188  -1.0233   0.0000   0.0000   0.0000   0.5088
  -0.900   0.7971   0.00968   0.00242  -0.2036  0.1857  0.0190  -1.0341   0.0000   0.0000   0.0000   0.5050
  -0.800   0.8084   0.00972   0.00243  -0.2037  0.1833  0.0192  -1.0448   0.0000   0.0000   0.0000   0.5013
  -0.700   0.8199   0.00975   0.00244  -0.2037  0.1807  0.0193  -1.0555   0.0000   0.0000   0.0000   0.4977
  -0.600   0.8313   0.00977   0.00245  -0.2038  0.1780  0.0195  -1.0661   0.0000   0.0000   0.0000   0.4942
  -0.500   0.8427   0.00980   0.00247  -0.2038  0.1748  0.0196  -1.0767   0.0000   0.0000   0.0000   0.4908
  -0.400   0.8540   0.00983   0.00249  -0.2038  0.1706  0.0196  -1.0873   0.0000   0.0000   0.0000   0.4874
  -0.300   0.8655   0.00985   0.00251  -0.2039  0.1695  0.0195  -1.0977   0.0000   0.0000   0.0000   0.4842
  -0.200   0.8769   0.00988   0.00253  -0.2039  0.1684  0.0193  -1.1082   0.0000   0.0000   0.0000   0.4810
  -0.100   0.8882   0.00991   0.00255  -0.2040  0.1673  0.0192  -1.1187   0.0000   0.0000   0.0000   0.4779
   0.000   0.8996   0.00993   0.00257  -0.2040  0.1662  0.0190  -1.1291   0.0000   0.0000   0.0000   0.4749


