xflr5 v6.59

 Calculated polar for: WORTMANN FX 63-137 AIRFOIL

 1 1 Reynolds number fixed          Mach number fixed         

 xtrf =   1.000 (top)        1.000 (bottom)
 Mach =   0.000     Re =     0.800 e 6     Ncrit =   9.000

  alpha     CL        CD       CDp       Cm    Top Xtr Bot Xtr   Cpmin    Chinge    XCp    
 ------- -------- --------- --------- -------- ------- ------- -------- --------- ---------
 -19.700  -0.4145   0.22641   0.22421  -0.0184  1.0000  0.0064  -1.4368   0.0000   0.0000   0.0000   0.1751
 -19.600  -0.4116   0.22537   0.22318  -0.0189  1.0000  0.0065  -1.4328   0.0000   0.0000   0.0000   0.1735
 -19.500  -0.4086   0.22433   0.22214  -0.0194  1.0000  0.0065  -1.4288   0.0000   0.0000   0.0000   0.1719
 -19.400  -0.4056   0.22329   0.22110  -0.0199  1.0000  0.0066  -1.4251   0.0000   0.0000   0.0000   0.1703
 -19.300  -0.4027   0.22224   0.22005  -0.0204  1.0000  0.0066  -1.4216   0.0000   0.0000   0.0000   0.1687
 -19.200  -0.3997   0.22117   0.21899  -0.0209  1.0000  0.0067  -1.4184   0.0000   0.0000   0.0000   0.1671
 -19.100  -0.3968   0.22008   0.21790  -0.0214  1.0000  0.0068  -1.4154   0.0000   0.0000   0.0000   0.1654
 -19.000  -0.3940   0.21896   0.21678  -0.0219  1.0000  0.0069  -1.4127   0.0000   0.0000   0.0000   0.1638
 -18.900  -0.3911   0.21780   0.21562  -0.0224  1.0000  0.0069  -1.4104   0.0000   0.0000   0.0000   0.1621
 -18.800  -0.3883   0.21662   0.21445  -0.0229  1.0000  0.0070  -1.4083   0.0000   0.0000   0.0000   0.1605
 -18.700  -0.3855   0.21544   0.21327  -0.0234  1.0000  0.0071  -1.4065   0.0000   0.0000   0.0000   0.1588
 -18.600  -0.3828   0.21425   0.21208  -0.0239  1.0000  0.0072  -1.4050   0.0000   0.0000   0.0000   0.1571
 -18.500  -0.3800   0.21306   0.21090  -0.0243  1.0000  0.0073  -1.4037   0.0000   0.0000   0.0000   0.1554
 -18.400  -0.3772   0.21187   0.20971  -0.0248  1.0000  0.0073  -1.4027   0.0000   0.0000   0.0000   0.1537
 -18.300  -0.3745   0.21067   0.20852  -0.0253  1.0000  0.0074  -1.4021   0.0000   0.0000   0.0000   0.1520
 -18.200  -0.3718   0.20947   0.20732  -0.0257  1.0000  0.0075  -1.4018   0.0000   0.0000   0.0000   0.1503
 -18.100  -0.3691   0.20827   0.20612  -0.0262  1.0000  0.0076  -1.4020   0.0000   0.0000   0.0000   0.1485
 -18.000  -0.3664   0.20706   0.20491  -0.0266  1.0000  0.0078  -1.4026   0.0000   0.0000   0.0000   0.1468
 -17.900  -0.3637   0.20585   0.20370  -0.0271  1.0000  0.0079  -1.4038   0.0000   0.0000   0.0000   0.1450
 -17.800  -0.3611   0.20462   0.20248  -0.0275  1.0000  0.0080  -1.4057   0.0000   0.0000   0.0000   0.1432
 -17.700  -0.3585   0.20339   0.20126  -0.0279  1.0000  0.0081  -1.4085   0.0000   0.0000   0.0000   0.1415
 -17.600  -0.3559   0.20215   0.20002  -0.0284  1.0000  0.0083  -1.4125   0.0000   0.0000   0.0000   0.1397
 -17.500  -0.3533   0.20090   0.19877  -0.0288  1.0000  0.0084  -1.4182   0.0000   0.0000   0.0000   0.1378
 -17.400  -0.3507   0.19962   0.19749  -0.0292  1.0000  0.0086  -1.4267   0.0000   0.0000   0.0000   0.1360
 -17.300  -0.3481   0.19831   0.19618  -0.0297  1.0000  0.0088  -1.4399   0.0000   0.0000   0.0000   0.1340
 -17.200  -0.3454   0.19695   0.19483  -0.0301  1.0000  0.0091  -1.4629   0.0000   0.0000   0.0000   0.1319
 -17.100  -0.3427   0.19562   0.19351  -0.0308  1.0000  0.0094  -1.4967   0.0000   0.0000   0.0000   0.1293
 -17.000  -0.3402   0.19443   0.19232  -0.0314  1.0000  0.0095  -1.5218   0.0000   0.0000   0.0000   0.1267
 -16.900  -0.3379   0.19327   0.19116  -0.0320  1.0000  0.0096  -1.5391   0.0000   0.0000   0.0000   0.1243
 -16.800  -0.3354   0.19213   0.19003  -0.0325  1.0000  0.0097  -1.5476   0.0000   0.0000   0.0000   0.1222
 -16.700  -0.3330   0.19098   0.18888  -0.0329  1.0000  0.0097  -1.5528   0.0000   0.0000   0.0000   0.1201
 -16.600  -0.3305   0.18981   0.18772  -0.0333  1.0000  0.0097  -1.5578   0.0000   0.0000   0.0000   0.1181
 -16.500  -0.3282   0.18863   0.18654  -0.0337  1.0000  0.0098  -1.5631   0.0000   0.0000   0.0000   0.1161
 -16.400  -0.3259   0.18744   0.18536  -0.0341  1.0000  0.0098  -1.5685   0.0000   0.0000   0.0000   0.1142
 -16.300  -0.3236   0.18624   0.18416  -0.0345  1.0000  0.0098  -1.5746   0.0000   0.0000   0.0000   0.1122
 -16.200  -0.3214   0.18503   0.18296  -0.0349  1.0000  0.0098  -1.5809   0.0000   0.0000   0.0000   0.1103
 -16.100  -0.3192   0.18382   0.18175  -0.0353  1.0000  0.0098  -1.5875   0.0000   0.0000   0.0000   0.1083
 -16.000  -0.3170   0.18260   0.18053  -0.0356  1.0000  0.0098  -1.5942   0.0000   0.0000   0.0000   0.1064
 -15.900  -0.3149   0.18137   0.17931  -0.0360  1.0000  0.0099  -1.6013   0.0000   0.0000   0.0000   0.1046
 -15.800  -0.3128   0.18013   0.17808  -0.0363  1.0000  0.0099  -1.6092   0.0000   0.0000   0.0000   0.1027
 -15.700  -0.3107   0.17890   0.17685  -0.0367  1.0000  0.0099  -1.6174   0.0000   0.0000   0.0000   0.1009
 -15.600  -0.3087   0.17766   0.17561  -0.0370  1.0000  0.0099  -1.6259   0.0000   0.0000   0.0000   0.0991
 -15.500  -0.3067   0.17641   0.17437  -0.0373  1.0000  0.0099  -1.6346   0.0000   0.0000   0.0000   0.0973
 -15.400  -0.3048   0.17515   0.17310  -0.0376  1.0000  0.0099  -1.6428   0.0000   0.0000   0.0000   0.0955
 -15.300  -0.3029   0.17390   0.17185  -0.0379  1.0000  0.0099  -1.6522   0.0000   0.0000   0.0000   0.0938
 -15.200  -0.3010   0.17264   0.17060  -0.0382  1.0000  0.0099  -1.6618   0.0000   0.0000   0.0000   0.0920
 -15.100  -0.2992   0.17138   0.16935  -0.0385  1.0000  0.0099  -1.6718   0.0000   0.0000   0.0000   0.0903
 -15.000  -0.2974   0.17012   0.16809  -0.0387  1.0000  0.0099  -1.6822   0.0000   0.0000   0.0000   0.0887
 -14.900  -0.2957   0.16886   0.16683  -0.0390  1.0000  0.0099  -1.6930   0.0000   0.0000   0.0000   0.0870
 -14.800  -0.2940   0.16760   0.16557  -0.0393  1.0000  0.0099  -1.7042   0.0000   0.0000   0.0000   0.0855
 -14.700  -0.2924   0.16633   0.16431  -0.0395  1.0000  0.0099  -1.7158   0.0000   0.0000   0.0000   0.0839
 -14.600  -0.2909   0.16506   0.16305  -0.0397  1.0000  0.0100  -1.7279   0.0000   0.0000   0.0000   0.0824
 -14.500  -0.2944   0.16152   0.15953  -0.0394  1.0000  0.0107  -1.7942   0.0000   0.0000   0.0000   0.0855
 -14.400  -0.2920   0.16063   0.15864  -0.0394  1.0000  0.0108  -1.7668   0.0000   0.0000   0.0000   0.0843
 -14.300  -0.2897   0.15975   0.15776  -0.0395  1.0000  0.0109  -1.7410   0.0000   0.0000   0.0000   0.0832
 -14.200  -0.2875   0.15886   0.15689  -0.0395  1.0000  0.0110  -1.7168   0.0000   0.0000   0.0000   0.0820
 -14.100  -0.2853   0.15798   0.15601  -0.0396  1.0000  0.0111  -1.6940   0.0000   0.0000   0.0000   0.0809
 -14.000  -0.2833   0.15709   0.15513  -0.0396  1.0000  0.0112  -1.6728   0.0000   0.0000   0.0000   0.0799
 -13.900  -0.2814   0.15621   0.15425  -0.0396  1.0000  0.0113  -1.6530   0.0000   0.0000   0.0000   0.0789
 -13.800  -0.2795   0.15532   0.15337  -0.0396  1.0000  0.0114  -1.6347   0.0000   0.0000   0.0000   0.0780
 -13.700  -0.2778   0.15443   0.15249  -0.0396  1.0000  0.0115  -1.6178   0.0000   0.0000   0.0000   0.0772
 -13.600  -0.2762   0.15353   0.15160  -0.0396  1.0000  0.0117  -1.6024   0.0000   0.0000   0.0000   0.0766
 -13.300  -0.2603   0.14940   0.14747  -0.0431  0.9993  0.0123  -1.5479   0.0000   0.0000   0.0000   0.0534
 -13.200  -0.2543   0.14789   0.14596  -0.0445  0.9990  0.0126  -1.5331   0.0000   0.0000   0.0000   0.0434
 -13.100  -0.2483   0.14635   0.14441  -0.0459  0.9987  0.0130  -1.5207   0.0000   0.0000   0.0000   0.0329
 -13.000  -0.2423   0.14477   0.14283  -0.0473  0.9983  0.0134  -1.5109   0.0000   0.0000   0.0000   0.0217
 -12.900  -0.2362   0.14316   0.14122  -0.0488  0.9979  0.0138  -1.5038   0.0000   0.0000   0.0000   0.0098
 -12.800  -0.2301   0.14152   0.13959  -0.0503  0.9975  0.0144  -1.5000   0.0000   0.0000   0.0000  -0.0030
 -12.700  -0.2237   0.13987   0.13793  -0.0519  0.9970  0.0152  -1.5011   0.0000   0.0000   0.0000  -0.0173
 -12.600  -0.2166   0.13825   0.13631  -0.0538  0.9966  0.0162  -1.5173   0.0000   0.0000   0.0000  -0.0347
 -12.500  -0.2104   0.13653   0.13459  -0.0556  0.9962  0.0164  -1.5354   0.0000   0.0000   0.0000  -0.0515
 -12.400  -0.2047   0.13474   0.13280  -0.0573  0.9958  0.0166  -1.5538   0.0000   0.0000   0.0000  -0.0681
 -12.300  -0.1995   0.13293   0.13099  -0.0588  0.9951  0.0166  -1.5734   0.0000   0.0000   0.0000  -0.0839
 -12.200  -0.1945   0.13109   0.12914  -0.0603  0.9944  0.0166  -1.5951   0.0000   0.0000   0.0000  -0.0999
 -12.100  -0.1896   0.12920   0.12726  -0.0618  0.9937  0.0167  -1.6198   0.0000   0.0000   0.0000  -0.1166
 -12.000  -0.1848   0.12728   0.12533  -0.0632  0.9930  0.0166  -1.6486   0.0000   0.0000   0.0000  -0.1338
 -11.900  -0.1803   0.12526   0.12332  -0.0647  0.9924  0.0166  -1.6839   0.0000   0.0000   0.0000  -0.1511
 -11.800  -0.5610   0.03146   0.02858  -0.1334  0.9628  0.0086  -9.4815   0.0000   0.0000   0.0000  -0.0087
 -11.700  -0.5578   0.02889   0.02588  -0.1379  0.9551  0.0086  -9.4804   0.0000   0.0000   0.0000  -0.0179
 -11.600  -0.5449   0.02618   0.02300  -0.1445  0.9514  0.0086  -9.4171   0.0000   0.0000   0.0000  -0.0360
 -11.500  -0.5268   0.02382   0.02047  -0.1513  0.9493  0.0087  -9.3050   0.0000   0.0000   0.0000  -0.0583
 -11.400  -0.5104   0.02214   0.01864  -0.1561  0.9455  0.0087  -9.1799   0.0000   0.0000   0.0000  -0.0773
 -11.300  -0.4941   0.02090   0.01724  -0.1598  0.9420  0.0087  -9.0398   0.0000   0.0000   0.0000  -0.0952
 -11.200  -0.4768   0.01985   0.01607  -0.1630  0.9395  0.0087  -8.8860   0.0000   0.0000   0.0000  -0.1140
 -11.100  -0.4586   0.01895   0.01505  -0.1660  0.9375  0.0087  -8.7207   0.0000   0.0000   0.0000  -0.1348
 -11.000  -0.4395   0.01816   0.01414  -0.1690  0.9358  0.0087  -8.5469   0.0000   0.0000   0.0000  -0.1578
 -10.900  -0.4197   0.01745   0.01333  -0.1719  0.9343  0.0088  -8.3661   0.0000   0.0000   0.0000  -0.1836
 -10.800  -0.4007   0.01685   0.01262  -0.1744  0.9321  0.0088  -8.1883   0.0000   0.0000   0.0000  -0.2100
 -10.700  -0.3842   0.01634   0.01203  -0.1763  0.9281  0.0088  -8.0240   0.0000   0.0000   0.0000  -0.2343
 -10.600  -0.3665   0.01586   0.01147  -0.1783  0.9244  0.0088  -7.8517   0.0000   0.0000   0.0000  -0.2629
 -10.500  -0.3482   0.01543   0.01096  -0.1804  0.9208  0.0089  -7.6749   0.0000   0.0000   0.0000  -0.2954
 -10.400  -0.3296   0.01504   0.01050  -0.1824  0.9173  0.0089  -7.4954   0.0000   0.0000   0.0000  -0.3320
 -10.300  -0.3137   0.01471   0.01011  -0.1839  0.9125  0.0090  -7.3317   0.0000   0.0000   0.0000  -0.3656
 -10.200  -0.2991   0.01442   0.00978  -0.1850  0.9068  0.0091  -7.1754   0.0000   0.0000   0.0000  -0.3991
 -10.100  -0.2837   0.01416   0.00948  -0.1862  0.9013  0.0092  -7.0164   0.0000   0.0000   0.0000  -0.4380
 -10.000  -0.2685   0.01394   0.00923  -0.1874  0.8962  0.0093  -6.8730   0.0000   0.0000   0.0000  -0.4810
  -9.900  -0.2561   0.01378   0.00906  -0.1879  0.8905  0.0094  -6.7430   0.0000   0.0000   0.0000  -0.5177
  -9.800  -0.2434   0.01366   0.00893  -0.1884  0.8849  0.0095  -6.6086   0.0000   0.0000   0.0000  -0.5594
  -9.700  -0.2304   0.01358   0.00885  -0.1888  0.8796  0.0096  -6.4713   0.0000   0.0000   0.0000  -0.6063
  -9.600  -0.2181   0.01355   0.00881  -0.1892  0.8748  0.0097  -6.3358   0.0000   0.0000   0.0000  -0.6559
  -9.500  -0.2070   0.01354   0.00881  -0.1892  0.8700  0.0097  -6.2070   0.0000   0.0000   0.0000  -0.7035
  -9.400  -0.1957   0.01355   0.00883  -0.1892  0.8650  0.0098  -6.0773   0.0000   0.0000   0.0000  -0.7581
  -9.300  -0.1841   0.01354   0.00877  -0.1894  0.8602  0.0098  -5.9532   0.0000   0.0000   0.0000  -0.8217
  -9.200  -0.1725   0.01358   0.00881  -0.1895  0.8556  0.0099  -5.8234   0.0000   0.0000   0.0000  -0.8940
  -9.100  -0.1610   0.01355   0.00877  -0.1896  0.8517  0.0100  -5.7019   0.0000   0.0000   0.0000  -0.9758
  -9.000  -0.1491   0.01319   0.00832  -0.1901  0.8480  0.0102  -5.6117   0.0000   0.0000   0.0000  -1.0764
  -8.900  -0.1371   0.01289   0.00793  -0.1906  0.8441  0.0105  -5.5175   0.0000   0.0000   0.0000  -1.1949
  -8.800  -0.1251   0.01262   0.00759  -0.1911  0.8400  0.0107  -5.4208   0.0000   0.0000   0.0000  -1.3361
  -8.700  -0.1131   0.01239   0.00727  -0.1915  0.8358  0.0108  -5.3226   0.0000   0.0000   0.0000  -1.5074
  -8.600  -0.1011   0.01218   0.00698  -0.1919  0.8315  0.0109  -5.2238   0.0000   0.0000   0.0000  -1.7196
  -8.500  -0.0891   0.01197   0.00670  -0.1923  0.8279  0.0111  -5.1252   0.0000   0.0000   0.0000  -1.9878
  -8.400  -0.0772   0.01177   0.00644  -0.1926  0.8243  0.0111  -5.0268   0.0000   0.0000   0.0000  -2.3356
  -8.300  -0.0653   0.01158   0.00619  -0.1930  0.8202  0.0112  -4.9283   0.0000   0.0000   0.0000  -2.8113
  -8.200  -0.0534   0.01141   0.00595  -0.1933  0.8158  0.0112  -4.8300   0.0000   0.0000   0.0000  -3.4968
  -8.100  -0.0416   0.01126   0.00573  -0.1936  0.8111  0.0112  -4.7320   0.0000   0.0000   0.0000  -4.5657
  -8.000  -0.0299   0.01113   0.00552  -0.1938  0.8062  0.0113  -4.6347   0.0000   0.0000   0.0000  -6.4568
  -7.900  -0.0180   0.01099   0.00533  -0.1940  0.8022  0.0113  -4.5368   0.0000   0.0000   0.0000  -10.8873
  -7.800  -0.0061   0.01086   0.00515  -0.1943  0.7984  0.0114  -4.4392   0.0000   0.0000   0.0000  -32.5779
  -7.700   0.0057   0.01074   0.00497  -0.1945  0.7941  0.0114  -4.3421   0.0000   0.0000   0.0000  35.4783
  -7.600   0.0174   0.01063   0.00481  -0.1947  0.7896  0.0115  -4.2458   0.0000   0.0000   0.0000  11.7866
  -7.500   0.0290   0.01055   0.00466  -0.1949  0.7851  0.0116  -4.1505   0.0000   0.0000   0.0000   7.1777
  -7.400   0.0406   0.01047   0.00452  -0.1950  0.7803  0.0116  -4.0557   0.0000   0.0000   0.0000   5.2063
  -7.300   0.0524   0.01038   0.00439  -0.1952  0.7766  0.0117  -3.9602   0.0000   0.0000   0.0000   4.0860
  -7.200   0.0644   0.01028   0.00427  -0.1954  0.7738  0.0118  -3.8646   0.0000   0.0000   0.0000   3.3742
  -7.100   0.0764   0.01019   0.00415  -0.1956  0.7706  0.0119  -3.7697   0.0000   0.0000   0.0000   2.8864
  -7.000   0.0883   0.01011   0.00404  -0.1958  0.7671  0.0119  -3.6955   0.0000   0.0000   0.0000   2.5318
  -6.900   0.1002   0.01004   0.00391  -0.1960  0.7637  0.0120  -3.6283   0.0000   0.0000   0.0000   2.2622
  -6.800   0.1119   0.00997   0.00381  -0.1962  0.7601  0.0121  -3.5621   0.0000   0.0000   0.0000   2.0512
  -6.700   0.1236   0.00992   0.00371  -0.1963  0.7562  0.0122  -3.4964   0.0000   0.0000   0.0000   1.8819
  -6.600   0.1351   0.00988   0.00362  -0.1964  0.7521  0.0123  -3.4311   0.0000   0.0000   0.0000   1.7431
  -6.500   0.1468   0.00982   0.00354  -0.1965  0.7486  0.0124  -3.3650   0.0000   0.0000   0.0000   1.6239
  -6.400   0.1588   0.00976   0.00346  -0.1967  0.7457  0.0125  -3.2982   0.0000   0.0000   0.0000   1.5211
  -6.300   0.1706   0.00970   0.00338  -0.1969  0.7423  0.0127  -3.2318   0.0000   0.0000   0.0000   1.4332
  -6.200   0.1824   0.00965   0.00331  -0.1970  0.7387  0.0128  -3.1657   0.0000   0.0000   0.0000   1.3571
  -6.100   0.1941   0.00961   0.00324  -0.1971  0.7350  0.0129  -3.0998   0.0000   0.0000   0.0000   1.2907
  -6.000   0.2056   0.00957   0.00317  -0.1972  0.7313  0.0130  -3.0343   0.0000   0.0000   0.0000   1.2321
  -5.900   0.2171   0.00955   0.00311  -0.1973  0.7275  0.0132  -2.9691   0.0000   0.0000   0.0000   1.1802
  -5.800   0.2286   0.00953   0.00306  -0.1974  0.7236  0.0134  -2.9037   0.0000   0.0000   0.0000   1.1335
  -5.700   0.2403   0.00949   0.00301  -0.1975  0.7205  0.0135  -2.8371   0.0000   0.0000   0.0000   1.0905
  -5.600   0.2523   0.00945   0.00296  -0.1977  0.7186  0.0137  -2.7692   0.0000   0.0000   0.0000   1.0509
  -5.500   0.2643   0.00940   0.00292  -0.1979  0.7164  0.0139  -2.7005   0.0000   0.0000   0.0000   1.0149
  -5.400   0.2762   0.00937   0.00289  -0.1980  0.7140  0.0142  -2.6307   0.0000   0.0000   0.0000   0.9822
  -5.300   0.2880   0.00934   0.00286  -0.1982  0.7115  0.0144  -2.5592   0.0000   0.0000   0.0000   0.9524
  -5.200   0.2997   0.00933   0.00285  -0.1983  0.7088  0.0147  -2.4858   0.0000   0.0000   0.0000   0.9251
  -5.100   0.3112   0.00933   0.00285  -0.1983  0.7058  0.0151  -2.4098   0.0000   0.0000   0.0000   0.9000
  -5.000   0.3225   0.00934   0.00287  -0.1984  0.7027  0.0154  -2.3303   0.0000   0.0000   0.0000   0.8770
  -4.900   0.3335   0.00937   0.00292  -0.1983  0.6994  0.0158  -2.2468   0.0000   0.0000   0.0000   0.8559
  -4.800   0.3443   0.00942   0.00300  -0.1982  0.6959  0.0162  -2.1589   0.0000   0.0000   0.0000   0.8364
  -4.700   0.3547   0.00950   0.00311  -0.1980  0.6923  0.0165  -2.0669   0.0000   0.0000   0.0000   0.8184
  -4.600   0.3649   0.00961   0.00329  -0.1978  0.6897  0.0168  -1.9689   0.0000   0.0000   0.0000   0.8016
  -4.500   0.3711   0.01014   0.00400  -0.1964  0.6874  0.0174  -1.8217   0.0000   0.0000   0.0000   0.7883
  -4.400   0.3855   0.00983   0.00363  -0.1973  0.6849  0.0180  -1.7965   0.0000   0.0000   0.0000   0.7704
  -4.300   0.3990   0.00963   0.00335  -0.1979  0.6822  0.0188  -1.7624   0.0000   0.0000   0.0000   0.7542
  -4.200   0.4116   0.00953   0.00321  -0.1983  0.6795  0.0193  -1.7190   0.0000   0.0000   0.0000   0.7394
  -4.100   0.4239   0.00945   0.00310  -0.1986  0.6767  0.0197  -1.6733   0.0000   0.0000   0.0000   0.7257
  -4.000   0.4361   0.00939   0.00301  -0.1988  0.6738  0.0201  -1.6266   0.0000   0.0000   0.0000   0.7128
  -3.900   0.4481   0.00933   0.00293  -0.1990  0.6708  0.0205  -1.5794   0.0000   0.0000   0.0000   0.7006
  -3.800   0.4599   0.00929   0.00286  -0.1992  0.6677  0.0208  -1.5322   0.0000   0.0000   0.0000   0.6892
  -3.700   0.4718   0.00926   0.00279  -0.1994  0.6644  0.0211  -1.4850   0.0000   0.0000   0.0000   0.6783
  -3.600   0.4837   0.00922   0.00272  -0.1995  0.6612  0.0214  -1.4379   0.0000   0.0000   0.0000   0.6679
  -3.500   0.4960   0.00916   0.00266  -0.1998  0.6595  0.0216  -1.3901   0.0000   0.0000   0.0000   0.6579
  -3.400   0.5083   0.00911   0.00260  -0.2001  0.6578  0.0218  -1.3426   0.0000   0.0000   0.0000   0.6483
  -3.300   0.5206   0.00906   0.00254  -0.2003  0.6557  0.0220  -1.2955   0.0000   0.0000   0.0000   0.6392
  -3.200   0.5329   0.00901   0.00248  -0.2005  0.6532  0.0223  -1.2485   0.0000   0.0000   0.0000   0.6305
  -3.100   0.5450   0.00897   0.00244  -0.2008  0.6502  0.0228  -1.2001   0.0000   0.0000   0.0000   0.6222
  -3.000   0.5571   0.00893   0.00240  -0.2010  0.6467  0.0236  -1.1505   0.0000   0.0000   0.0000   0.6144
  -2.900   0.5690   0.00890   0.00236  -0.2012  0.6426  0.0243  -1.1009   0.0000   0.0000   0.0000   0.6069
  -2.800   0.5807   0.00888   0.00232  -0.2013  0.6382  0.0249  -1.0531   0.0000   0.0000   0.0000   0.5997
  -2.700   0.5923   0.00887   0.00228  -0.2014  0.6336  0.0253  -1.0080   0.0000   0.0000   0.0000   0.5929
  -2.600   0.6038   0.00887   0.00224  -0.2015  0.6291  0.0255  -0.9651   0.0000   0.0000   0.0000   0.5863
  -2.500   0.6158   0.00884   0.00219  -0.2016  0.6261  0.0256  -0.9230   0.0000   0.0000   0.0000   0.5799
  -2.400   0.6278   0.00882   0.00214  -0.2018  0.6229  0.0255  -0.8876   0.0000   0.0000   0.0000   0.5736
  -2.300   0.6394   0.00883   0.00207  -0.2018  0.6195  0.0244  -0.8961   0.0000   0.0000   0.0000   0.5676
  -2.200   0.6512   0.00882   0.00204  -0.2019  0.6159  0.0249  -0.9048   0.0000   0.0000   0.0000   0.5619
  -2.100   0.6628   0.00881   0.00202  -0.2020  0.6121  0.0253  -0.9134   0.0000   0.0000   0.0000   0.5564
  -2.000   0.6743   0.00882   0.00199  -0.2021  0.6081  0.0255  -0.9219   0.0000   0.0000   0.0000   0.5511
  -1.900   0.6855   0.00884   0.00197  -0.2021  0.6038  0.0254  -0.9303   0.0000   0.0000   0.0000   0.5460
  -1.800   0.6967   0.00887   0.00195  -0.2021  0.5994  0.0254  -0.9386   0.0000   0.0000   0.0000   0.5411
  -1.700   0.7084   0.00887   0.00192  -0.2022  0.5964  0.0254  -0.9473   0.0000   0.0000   0.0000   0.5362
  -1.600   0.7203   0.00886   0.00190  -0.2023  0.5942  0.0254  -0.9568   0.0000   0.0000   0.0000   0.5315
  -1.500   0.7322   0.00885   0.00188  -0.2025  0.5914  0.0255  -0.9671   0.0000   0.0000   0.0000   0.5270
  -1.400   0.7440   0.00884   0.00186  -0.2026  0.5876  0.0255  -0.9774   0.0000   0.0000   0.0000   0.5226
  -1.300   0.7556   0.00885   0.00184  -0.2027  0.5827  0.0255  -0.9875   0.0000   0.0000   0.0000   0.5184
  -1.200   0.7669   0.00887   0.00183  -0.2027  0.5765  0.0256  -0.9975   0.0000   0.0000   0.0000   0.5143
  -0.900   0.8001   0.00899   0.00183  -0.2026  0.5595  0.0259  -1.0272   0.0000   0.0000   0.0000   0.5027
  -0.800   0.8114   0.00901   0.00183  -0.2027  0.5551  0.0260  -1.0372   0.0000   0.0000   0.0000   0.4991
  -0.700   0.8226   0.00904   0.00183  -0.2027  0.5507  0.0260  -1.0472   0.0000   0.0000   0.0000   0.4955
  -0.600   0.8337   0.00908   0.00185  -0.2027  0.5461  0.0261  -1.0572   0.0000   0.0000   0.0000   0.4921
  -0.500   0.8447   0.00913   0.00186  -0.2026  0.5413  0.0262  -1.0671   0.0000   0.0000   0.0000   0.4887
  -0.400   0.8557   0.00917   0.00189  -0.2026  0.5363  0.0263  -1.0769   0.0000   0.0000   0.0000   0.4854
  -0.300   0.8670   0.00920   0.00191  -0.2026  0.5321  0.0264  -1.0870   0.0000   0.0000   0.0000   0.4823
  -0.200   0.8786   0.00921   0.00194  -0.2027  0.5291  0.0266  -1.0973   0.0000   0.0000   0.0000   0.4791
  -0.100   0.8900   0.00923   0.00197  -0.2028  0.5241  0.0268  -1.1075   0.0000   0.0000   0.0000   0.4761
   0.000   0.9011   0.00928   0.00200  -0.2028  0.5145  0.0336  -1.1175   0.0000   0.0000   0.0000   0.4731


