xflr5 v6.59

 Calculated polar for: WORTMANN FX 63-137 AIRFOIL

 1 1 Reynolds number fixed          Mach number fixed         

 xtrf =   1.000 (top)        1.000 (bottom)
 Mach =   0.000     Re =     1.700 e 6     Ncrit =   9.000

  alpha     CL        CD       CDp       Cm    Top Xtr Bot Xtr   Cpmin    Chinge    XCp    
 ------- -------- --------- --------- -------- ------- ------- -------- --------- ---------
 -16.800  -0.3393   0.19252   0.19107  -0.0291  1.0000  0.0046  -1.5577   0.0000   0.0000   0.0000   0.1336
 -16.700  -0.3370   0.19128   0.18983  -0.0295  1.0000  0.0046  -1.5621   0.0000   0.0000   0.0000   0.1320
 -16.600  -0.3346   0.19003   0.18859  -0.0298  1.0000  0.0046  -1.5666   0.0000   0.0000   0.0000   0.1303
 -16.500  -0.3323   0.18879   0.18735  -0.0302  1.0000  0.0046  -1.5712   0.0000   0.0000   0.0000   0.1287
 -16.400  -0.3301   0.18754   0.18611  -0.0305  1.0000  0.0046  -1.5759   0.0000   0.0000   0.0000   0.1270
 -16.300  -0.3278   0.18630   0.18487  -0.0308  1.0000  0.0046  -1.5808   0.0000   0.0000   0.0000   0.1254
 -13.700  -0.4950   0.08161   0.07999  -0.0849  0.9957  0.0071  -8.3668   0.0000   0.0000   0.0000   0.0510
 -13.600  -0.6037   0.05895   0.05707  -0.1017  0.9933  0.0069  -10.2656   0.0000   0.0000   0.0000   0.0570
 -13.500  -0.6256   0.05149   0.04950  -0.1093  0.9917  0.0068  -10.6777   0.0000   0.0000   0.0000   0.0515
 -13.200  -0.6475   0.03896   0.03671  -0.1247  0.9845  0.0068  -11.1025   0.0000   0.0000   0.0000   0.0349
 -13.100  -0.6512   0.03627   0.03395  -0.1280  0.9801  0.0068  -11.1524   0.0000   0.0000   0.0000   0.0314
 -13.000  -0.6528   0.03382   0.03143  -0.1312  0.9748  0.0068  -11.1747   0.0000   0.0000   0.0000   0.0272
 -12.900  -0.6566   0.03196   0.02951  -0.1329  0.9662  0.0068  -11.1912   0.0000   0.0000   0.0000   0.0263
 -12.800  -0.6481   0.02938   0.02683  -0.1381  0.9615  0.0068  -11.1349   0.0000   0.0000   0.0000   0.0156
 -12.700  -0.6367   0.02708   0.02442  -0.1436  0.9552  0.0068  -11.0489   0.0000   0.0000   0.0000   0.0033
 -12.600  -0.6172   0.02476   0.02197  -0.1506  0.9510  0.0068  -10.9018   0.0000   0.0000   0.0000  -0.0155
 -12.500  -0.5930   0.02267   0.01974  -0.1581  0.9475  0.0069  -10.7123   0.0000   0.0000   0.0000  -0.0386
 -12.400  -0.5663   0.02088   0.01782  -0.1654  0.9426  0.0069  -10.4965   0.0000   0.0000   0.0000  -0.0646
 -12.300  -0.5379   0.01935   0.01615  -0.1724  0.9366  0.0069  -10.2607   0.0000   0.0000   0.0000  -0.0939
 -12.200  -0.5119   0.01815   0.01480  -0.1782  0.9279  0.0069  -10.0338   0.0000   0.0000   0.0000  -0.1223
 -12.000  -0.4778   0.01677   0.01316  -0.1837  0.9017  0.0068  -9.6797   0.0000   0.0000   0.0000  -0.1596
 -11.900  -0.4662   0.01632   0.01259  -0.1848  0.8897  0.0068  -9.5365   0.0000   0.0000   0.0000  -0.1716
 -11.800  -0.4560   0.01592   0.01209  -0.1855  0.8785  0.0068  -9.4009   0.0000   0.0000   0.0000  -0.1822
 -11.700  -0.4457   0.01554   0.01161  -0.1861  0.8703  0.0069  -9.2658   0.0000   0.0000   0.0000  -0.1932
 -11.600  -0.4356   0.01520   0.01118  -0.1866  0.8600  0.0068  -9.1305   0.0000   0.0000   0.0000  -0.2041
 -11.500  -0.4258   0.01489   0.01078  -0.1869  0.8507  0.0068  -8.9967   0.0000   0.0000   0.0000  -0.2150
 -11.400  -0.4153   0.01458   0.01040  -0.1873  0.8429  0.0068  -8.8586   0.0000   0.0000   0.0000  -0.2273
 -11.300  -0.4053   0.01431   0.01004  -0.1876  0.8347  0.0068  -8.7236   0.0000   0.0000   0.0000  -0.2393
 -11.200  -0.3950   0.01404   0.00970  -0.1879  0.8277  0.0068  -8.5865   0.0000   0.0000   0.0000  -0.2525
 -11.100  -0.3839   0.01377   0.00937  -0.1883  0.8217  0.0068  -8.4449   0.0000   0.0000   0.0000  -0.2677
 -11.000  -0.3732   0.01353   0.00906  -0.1886  0.8142  0.0068  -8.3059   0.0000   0.0000   0.0000  -0.2829
 -10.900  -0.3630   0.01333   0.00877  -0.1888  0.8061  0.0068  -8.1706   0.0000   0.0000   0.0000  -0.2979
 -10.800  -0.3519   0.01310   0.00849  -0.1891  0.8010  0.0068  -8.0299   0.0000   0.0000   0.0000  -0.3158
 -10.700  -0.3405   0.01289   0.00822  -0.1894  0.7962  0.0068  -7.8884   0.0000   0.0000   0.0000  -0.3352
 -10.600  -0.3293   0.01269   0.00796  -0.1897  0.7911  0.0067  -7.7484   0.0000   0.0000   0.0000  -0.3554
 -10.500  -0.3184   0.01251   0.00772  -0.1899  0.7857  0.0067  -7.6104   0.0000   0.0000   0.0000  -0.3766
 -10.400  -0.3075   0.01234   0.00748  -0.1901  0.7798  0.0067  -7.4733   0.0000   0.0000   0.0000  -0.3990
 -10.300  -0.2958   0.01215   0.00725  -0.1905  0.7764  0.0067  -7.3324   0.0000   0.0000   0.0000  -0.4252
 -10.200  -0.2839   0.01197   0.00703  -0.1908  0.7737  0.0067  -7.1908   0.0000   0.0000   0.0000  -0.4543
 -10.100  -0.2721   0.01180   0.00682  -0.1911  0.7701  0.0067  -7.0505   0.0000   0.0000   0.0000  -0.4856
 -10.000  -0.2604   0.01164   0.00662  -0.1914  0.7657  0.0067  -6.9118   0.0000   0.0000   0.0000  -0.5191
  -9.900  -0.2489   0.01150   0.00643  -0.1917  0.7606  0.0067  -6.7752   0.0000   0.0000   0.0000  -0.5550
  -9.800  -0.2377   0.01137   0.00625  -0.1918  0.7550  0.0066  -6.6410   0.0000   0.0000   0.0000  -0.5932
  -9.700  -0.2264   0.01124   0.00608  -0.1920  0.7496  0.0066  -6.5211   0.0000   0.0000   0.0000  -0.6356
  -9.600  -0.2145   0.01109   0.00590  -0.1923  0.7468  0.0066  -6.4038   0.0000   0.0000   0.0000  -0.6857
  -9.500  -0.2026   0.01095   0.00573  -0.1926  0.7438  0.0066  -6.2873   0.0000   0.0000   0.0000  -0.7417
  -9.400  -0.1906   0.01080   0.00556  -0.1929  0.7407  0.0066  -6.1715   0.0000   0.0000   0.0000  -0.8045
  -9.300  -0.1788   0.01066   0.00538  -0.1932  0.7372  0.0066  -6.0578   0.0000   0.0000   0.0000  -0.8752
  -9.200  -0.1669   0.01053   0.00523  -0.1935  0.7344  0.0066  -5.9427   0.0000   0.0000   0.0000  -0.9563
  -9.100  -0.1551   0.01040   0.00508  -0.1938  0.7318  0.0065  -5.8284   0.0000   0.0000   0.0000  -1.0497
  -9.000  -0.1432   0.01029   0.00494  -0.1940  0.7291  0.0065  -5.7150   0.0000   0.0000   0.0000  -1.1581
  -8.900  -0.1314   0.01018   0.00481  -0.1943  0.7263  0.0065  -5.6025   0.0000   0.0000   0.0000  -1.2859
  -8.800  -0.1195   0.01008   0.00468  -0.1945  0.7235  0.0065  -5.4908   0.0000   0.0000   0.0000  -1.4396
  -8.700  -0.1075   0.00998   0.00455  -0.1947  0.7210  0.0065  -5.3795   0.0000   0.0000   0.0000  -1.6287
  -8.600  -0.0953   0.00987   0.00443  -0.1950  0.7199  0.0065  -5.2679   0.0000   0.0000   0.0000  -1.8717
  -8.500  -0.0831   0.00977   0.00431  -0.1953  0.7181  0.0065  -5.1573   0.0000   0.0000   0.0000  -2.1845
  -8.400  -0.0710   0.00968   0.00420  -0.1955  0.7154  0.0065  -5.0479   0.0000   0.0000   0.0000  -2.6014
  -8.300  -0.0591   0.00960   0.00409  -0.1958  0.7108  0.0065  -4.9402   0.0000   0.0000   0.0000  -3.1795
  -8.200  -0.0475   0.00954   0.00399  -0.1959  0.7035  0.0065  -4.8350   0.0000   0.0000   0.0000  -4.0155
  -8.100  -0.0365   0.00950   0.00389  -0.1959  0.6940  0.0065  -4.7332   0.0000   0.0000   0.0000  -5.2997
  -8.000  -0.0249   0.00944   0.00379  -0.1960  0.6876  0.0065  -4.6296   0.0000   0.0000   0.0000  -7.8844
  -7.900  -0.0132   0.00939   0.00370  -0.1962  0.6823  0.0065  -4.5261   0.0000   0.0000   0.0000  -15.1333
  -7.800  -0.0015   0.00933   0.00361  -0.1963  0.6768  0.0065  -4.4240   0.0000   0.0000   0.0000  -131.5406
  -7.700   0.0100   0.00929   0.00352  -0.1964  0.6713  0.0066  -4.3230   0.0000   0.0000   0.0000  20.5022
  -7.600   0.0216   0.00925   0.00344  -0.1966  0.6659  0.0066  -4.2227   0.0000   0.0000   0.0000   9.6314
  -7.500   0.0334   0.00919   0.00336  -0.1967  0.6616  0.0066  -4.1222   0.0000   0.0000   0.0000   6.3154
  -7.400   0.0456   0.00913   0.00328  -0.1970  0.6600  0.0066  -4.0212   0.0000   0.0000   0.0000   4.7049
  -7.300   0.0577   0.00906   0.00320  -0.1972  0.6588  0.0066  -3.9445   0.0000   0.0000   0.0000   3.7677
  -7.200   0.0699   0.00900   0.00313  -0.1974  0.6574  0.0066  -3.8688   0.0000   0.0000   0.0000   3.1577
  -7.100   0.0820   0.00893   0.00306  -0.1976  0.6557  0.0066  -3.7934   0.0000   0.0000   0.0000   2.7293
  -7.000   0.0941   0.00888   0.00299  -0.1979  0.6534  0.0066  -3.7186   0.0000   0.0000   0.0000   2.4121
  -6.900   0.1062   0.00882   0.00291  -0.1981  0.6514  0.0066  -3.6441   0.0000   0.0000   0.0000   2.1670
  -6.800   0.1181   0.00878   0.00285  -0.1982  0.6473  0.0066  -3.5703   0.0000   0.0000   0.0000   1.9743
  -6.700   0.1298   0.00875   0.00279  -0.1984  0.6411  0.0066  -3.4974   0.0000   0.0000   0.0000   1.8195
  -6.600   0.1412   0.00874   0.00274  -0.1984  0.6339  0.0066  -3.4253   0.0000   0.0000   0.0000   1.6927
  -6.500   0.1528   0.00872   0.00270  -0.1985  0.6280  0.0066  -3.3522   0.0000   0.0000   0.0000   1.5831
  -6.400   0.1646   0.00868   0.00265  -0.1987  0.6242  0.0066  -3.2777   0.0000   0.0000   0.0000   1.4877
  -6.300   0.1764   0.00866   0.00261  -0.1988  0.6203  0.0066  -3.2000   0.0000   0.0000   0.0000   1.4053
  -6.200   0.1880   0.00865   0.00258  -0.1989  0.6162  0.0066  -3.1162   0.0000   0.0000   0.0000   1.3340
  -6.100   0.1993   0.00866   0.00260  -0.1990  0.6119  0.0066  -3.0177   0.0000   0.0000   0.0000   1.2723
  -6.000   0.2098   0.00875   0.00273  -0.1988  0.6074  0.0066  -2.8924   0.0000   0.0000   0.0000   1.2197
  -5.900   0.2208   0.00880   0.00279  -0.1988  0.6025  0.0066  -2.7966   0.0000   0.0000   0.0000   1.1709
  -5.800   0.2324   0.00879   0.00277  -0.1988  0.5979  0.0066  -2.7227   0.0000   0.0000   0.0000   1.1249
  -5.700   0.2443   0.00877   0.00275  -0.1990  0.5962  0.0066  -2.6508   0.0000   0.0000   0.0000   1.0826
  -5.600   0.2562   0.00874   0.00273  -0.1992  0.5945  0.0066  -2.5811   0.0000   0.0000   0.0000   1.0442
  -5.500   0.2682   0.00871   0.00270  -0.1993  0.5923  0.0066  -2.5136   0.0000   0.0000   0.0000   1.0092
  -5.400   0.2800   0.00868   0.00267  -0.1995  0.5888  0.0066  -2.4480   0.0000   0.0000   0.0000   0.9773
  -5.300   0.2916   0.00868   0.00264  -0.1996  0.5819  0.0066  -2.3847   0.0000   0.0000   0.0000   0.9484
  -5.200   0.3027   0.00870   0.00262  -0.1996  0.5712  0.0066  -2.3242   0.0000   0.0000   0.0000   0.9225
  -5.100   0.3140   0.00872   0.00260  -0.1996  0.5625  0.0066  -2.2642   0.0000   0.0000   0.0000   0.8982
  -5.000   0.3256   0.00871   0.00257  -0.1997  0.5573  0.0066  -2.2043   0.0000   0.0000   0.0000   0.8751
  -4.900   0.3372   0.00871   0.00254  -0.1998  0.5520  0.0067  -2.1454   0.0000   0.0000   0.0000   0.8537
  -4.800   0.3487   0.00871   0.00252  -0.1999  0.5466  0.0067  -2.0874   0.0000   0.0000   0.0000   0.8337
  -4.700   0.3601   0.00873   0.00249  -0.2000  0.5407  0.0067  -2.0300   0.0000   0.0000   0.0000   0.8151
  -4.600   0.3717   0.00873   0.00247  -0.2001  0.5345  0.0068  -1.9728   0.0000   0.0000   0.0000   0.7976
  -4.500   0.3835   0.00871   0.00245  -0.2002  0.5316  0.0068  -1.9150   0.0000   0.0000   0.0000   0.7808
  -4.400   0.3953   0.00871   0.00242  -0.2003  0.5296  0.0069  -1.8559   0.0000   0.0000   0.0000   0.7651
  -4.300   0.4068   0.00871   0.00242  -0.2004  0.5269  0.0071  -1.7943   0.0000   0.0000   0.0000   0.7504
  -4.200   0.4246   0.00824   0.00183  -0.2018  0.5215  0.0132  -2.0384   0.0000   0.0000   0.0000   0.7327
  -4.100   0.4354   0.00831   0.00190  -0.2018  0.5123  0.0145  -1.9435   0.0000   0.0000   0.0000   0.7204
  -4.000   0.4454   0.00843   0.00199  -0.2015  0.4997  0.0153  -1.8451   0.0000   0.0000   0.0000   0.7091
  -3.900   0.4561   0.00851   0.00208  -0.2014  0.4940  0.0159  -1.7457   0.0000   0.0000   0.0000   0.6979
  -3.800   0.4668   0.00858   0.00217  -0.2014  0.4884  0.0163  -1.6519   0.0000   0.0000   0.0000   0.6873
  -3.700   0.4774   0.00866   0.00227  -0.2013  0.4829  0.0166  -1.5636   0.0000   0.0000   0.0000   0.6772
  -3.600   0.4876   0.00876   0.00241  -0.2011  0.4767  0.0169  -1.4755   0.0000   0.0000   0.0000   0.6677
  -3.200   0.5350   0.00870   0.00231  -0.2018  0.4625  0.0204  -1.2624   0.0000   0.0000   0.0000   0.6313
  -3.100   0.5470   0.00868   0.00227  -0.2020  0.4585  0.0204  -1.2170   0.0000   0.0000   0.0000   0.6230
  -3.000   0.5589   0.00867   0.00223  -0.2021  0.4535  0.0205  -1.1721   0.0000   0.0000   0.0000   0.6152
  -2.900   0.5692   0.00879   0.00224  -0.2020  0.4331  0.0205  -1.1307   0.0000   0.0000   0.0000   0.6082
  -2.800   0.5809   0.00880   0.00221  -0.2021  0.4279  0.0204  -1.0866   0.0000   0.0000   0.0000   0.6010
  -2.700   0.5925   0.00881   0.00218  -0.2022  0.4228  0.0204  -1.0429   0.0000   0.0000   0.0000   0.5941
  -2.600   0.6041   0.00883   0.00216  -0.2023  0.4178  0.0203  -0.9996   0.0000   0.0000   0.0000   0.5875
  -2.500   0.6155   0.00885   0.00214  -0.2024  0.4122  0.0201  -0.9565   0.0000   0.0000   0.0000   0.5812
  -2.400   0.6271   0.00887   0.00212  -0.2025  0.4065  0.0198  -0.9131   0.0000   0.0000   0.0000   0.5750
  -2.300   0.6389   0.00887   0.00209  -0.2026  0.4023  0.0192  -0.8998   0.0000   0.0000   0.0000   0.5691
  -2.200   0.6509   0.00886   0.00206  -0.2027  0.4011  0.0192  -0.9086   0.0000   0.0000   0.0000   0.5633
  -2.100   0.6628   0.00885   0.00204  -0.2029  0.3996  0.0192  -0.9175   0.0000   0.0000   0.0000   0.5577
  -2.000   0.6746   0.00884   0.00202  -0.2030  0.3975  0.0192  -0.9263   0.0000   0.0000   0.0000   0.5523
  -1.900   0.6863   0.00885   0.00200  -0.2031  0.3940  0.0191  -0.9350   0.0000   0.0000   0.0000   0.5472
  -1.800   0.6970   0.00894   0.00203  -0.2030  0.3801  0.0191  -0.9434   0.0000   0.0000   0.0000   0.5423
  -1.700   0.7073   0.00906   0.00206  -0.2029  0.3649  0.0192  -0.9516   0.0000   0.0000   0.0000   0.5377
  -1.600   0.7182   0.00913   0.00207  -0.2029  0.3567  0.0194  -0.9603   0.0000   0.0000   0.0000   0.5331
  -1.500   0.7289   0.00922   0.00209  -0.2028  0.3472  0.0197  -0.9698   0.0000   0.0000   0.0000   0.5287
  -1.400   0.7402   0.00926   0.00209  -0.2028  0.3389  0.0201  -0.9798   0.0000   0.0000   0.0000   0.5243
  -1.300   0.7518   0.00927   0.00209  -0.2029  0.3362  0.0204  -0.9900   0.0000   0.0000   0.0000   0.5201
  -1.200   0.7632   0.00930   0.00209  -0.2030  0.3311  0.0206  -1.0002   0.0000   0.0000   0.0000   0.5159
  -1.100   0.7726   0.00950   0.00218  -0.2027  0.3073  0.0208  -1.0107   0.0000   0.0000   0.0000   0.5122
  -1.000   0.7834   0.00958   0.00221  -0.2026  0.2986  0.0208  -1.0194   0.0000   0.0000   0.0000   0.5083
  -0.900   0.7941   0.00967   0.00224  -0.2026  0.2908  0.0208  -1.0295   0.0000   0.0000   0.0000   0.5046
  -0.800   0.8051   0.00973   0.00226  -0.2025  0.2832  0.0206  -1.0396   0.0000   0.0000   0.0000   0.5009
  -0.700   0.8165   0.00976   0.00228  -0.2026  0.2787  0.0205  -1.0499   0.0000   0.0000   0.0000   0.4973
  -0.600   0.8280   0.00977   0.00229  -0.2027  0.2776  0.0204  -1.0605   0.0000   0.0000   0.0000   0.4938
  -0.500   0.8396   0.00979   0.00230  -0.2027  0.2761  0.0203  -1.0712   0.0000   0.0000   0.0000   0.4903
  -0.400   0.8510   0.00981   0.00231  -0.2028  0.2742  0.0202  -1.0820   0.0000   0.0000   0.0000   0.4870
  -0.300   0.8624   0.00983   0.00233  -0.2028  0.2719  0.0202  -1.0929   0.0000   0.0000   0.0000   0.4838
  -0.200   0.8719   0.01002   0.00243  -0.2026  0.2520  0.0201  -1.1075   0.0000   0.0000   0.0000   0.4807
  -0.100   0.8823   0.01013   0.00249  -0.2024  0.2434  0.0201  -1.1162   0.0000   0.0000   0.0000   0.4777
   0.000   0.8926   0.01024   0.00255  -0.2023  0.2354  0.0200  -1.1186   0.0000   0.0000   0.0000   0.4748


