xflr5 v6.59

 Calculated polar for: WORTMANN FX 63-137 AIRFOIL

 1 1 Reynolds number fixed          Mach number fixed         

 xtrf =   1.000 (top)        1.000 (bottom)
 Mach =   0.000     Re =     4.500 e 6     Ncrit =   9.000

  alpha     CL        CD       CDp       Cm    Top Xtr Bot Xtr   Cpmin    Chinge    XCp    
 ------- -------- --------- --------- -------- ------- ------- -------- --------- ---------
   0.000   0.9092   0.00942   0.00249  -0.2062  0.1223  0.0184  -1.1383   0.0000   0.0000   0.0000   0.4749
   0.100   0.9206   0.00944   0.00251  -0.2062  0.1219  0.0184  -1.1487   0.0000   0.0000   0.0000   0.4720
   0.200   0.9320   0.00947   0.00254  -0.2063  0.1214  0.0183  -1.1592   0.0000   0.0000   0.0000   0.4692
   0.300   0.9433   0.00950   0.00257  -0.2063  0.1207  0.0182  -1.1696   0.0000   0.0000   0.0000   0.4664
   0.400   0.9546   0.00953   0.00260  -0.2063  0.1199  0.0180  -1.1800   0.0000   0.0000   0.0000   0.4637
   0.500   0.9650   0.00964   0.00268  -0.2062  0.1097  0.0178  -1.1897   0.0000   0.0000   0.0000   0.4611
   0.600   0.9756   0.00973   0.00274  -0.2061  0.1027  0.0176  -1.2003   0.0000   0.0000   0.0000   0.4585
   0.700   0.9867   0.00977   0.00278  -0.2061  0.1017  0.0174  -1.2125   0.0000   0.0000   0.0000   0.4560
   0.900   1.0090   0.00986   0.00285  -0.2060  0.0998  0.0174  -1.2371   0.0000   0.0000   0.0000   0.4511
   1.100   1.0311   0.00995   0.00293  -0.2060  0.0978  0.0175  -1.2616   0.0000   0.0000   0.0000   0.4464
   1.200   1.0421   0.01000   0.00297  -0.2060  0.0968  0.0208  -1.2739   0.0000   0.0000   0.0000   0.4441
   1.300   1.0530   0.01005   0.00300  -0.2059  0.0957  0.0240  -1.2884   0.0000   0.0000   0.0000   0.4418
   1.400   1.0643   0.01009   0.00305  -0.2060  0.0945  0.0255  -1.3034   0.0000   0.0000   0.0000   0.4397
   1.500   1.0755   0.01012   0.00311  -0.2060  0.0933  0.0277  -1.3184   0.0000   0.0000   0.0000   0.4375
   1.600   1.0868   0.01015   0.00314  -0.2060  0.0920  0.0351  -1.3336   0.0000   0.0000   0.0000   0.4354
   1.700   1.0979   0.01019   0.00318  -0.2060  0.0906  0.0361  -1.3487   0.0000   0.0000   0.0000   0.4334
   1.800   1.1090   0.01023   0.00321  -0.2060  0.0892  0.0368  -1.3637   0.0000   0.0000   0.0000   0.4314
   1.900   1.1201   0.01027   0.00325  -0.2060  0.0880  0.0373  -1.3788   0.0000   0.0000   0.0000   0.4294
   2.000   1.1312   0.01031   0.00329  -0.2060  0.0869  0.0377  -1.3939   0.0000   0.0000   0.0000   0.4274
   2.100   1.1423   0.01035   0.00333  -0.2060  0.0858  0.0381  -1.4090   0.0000   0.0000   0.0000   0.4255
   2.200   1.1533   0.01039   0.00337  -0.2060  0.0849  0.0392  -1.4240   0.0000   0.0000   0.0000   0.4236
   2.300   1.1644   0.01043   0.00342  -0.2060  0.0843  0.0449  -1.4391   0.0000   0.0000   0.0000   0.4218
   2.400   1.1753   0.01048   0.00348  -0.2060  0.0832  0.0473  -1.4540   0.0000   0.0000   0.0000   0.4200
   2.500   1.1858   0.01056   0.00355  -0.2059  0.0799  0.0494  -1.4689   0.0000   0.0000   0.0000   0.4182
   2.600   1.1940   0.01084   0.00375  -0.2053  0.0619  0.0513  -1.4916   0.0000   0.0000   0.0000   0.4164
   2.700   1.2049   0.01091   0.00381  -0.2053  0.0584  0.0654  -1.5104   0.0000   0.0000   0.0000   0.4147
   2.800   1.2156   0.01097   0.00386  -0.2053  0.0553  0.0700  -1.5289   0.0000   0.0000   0.0000   0.4130
   2.900   1.2265   0.01102   0.00392  -0.2052  0.0529  0.0775  -1.5475   0.0000   0.0000   0.0000   0.4113
   3.000   1.2373   0.01107   0.00398  -0.2052  0.0516  0.0806  -1.5659   0.0000   0.0000   0.0000   0.4097
   3.100   1.2482   0.01112   0.00403  -0.2051  0.0513  0.0837  -1.5880   0.0000   0.0000   0.0000   0.4081
   3.200   1.2594   0.01116   0.00409  -0.2052  0.0509  0.1003  -1.6116   0.0000   0.0000   0.0000   0.4065
   3.300   1.2701   0.01122   0.00415  -0.2051  0.0505  0.1018  -1.6348   0.0000   0.0000   0.0000   0.4050
   3.400   1.2808   0.01128   0.00420  -0.2051  0.0499  0.1032  -1.6583   0.0000   0.0000   0.0000   0.4034
   3.500   1.2914   0.01134   0.00426  -0.2050  0.0492  0.1069  -1.6820   0.0000   0.0000   0.0000   0.4019
   3.600   1.3020   0.01141   0.00433  -0.2049  0.0482  0.1131  -1.7060   0.0000   0.0000   0.0000   0.4004
   3.700   1.3126   0.01147   0.00440  -0.2048  0.0471  0.1184  -1.7301   0.0000   0.0000   0.0000   0.3989
   3.800   1.3231   0.01155   0.00448  -0.2047  0.0459  0.1220  -1.7543   0.0000   0.0000   0.0000   0.3974
   3.900   1.3346   0.01153   0.00449  -0.2048  0.0496  0.1223  -1.7767   0.0000   0.0000   0.0000   0.3960
   4.000   1.3457   0.01157   0.00456  -0.2049  0.0493  0.1439  -1.8114   0.0000   0.0000   0.0000   0.3947
   4.100   1.3562   0.01164   0.00463  -0.2047  0.0485  0.1460  -1.8454   0.0000   0.0000   0.0000   0.3932
   4.200   1.3664   0.01173   0.00472  -0.2046  0.0468  0.1538  -1.8794   0.0000   0.0000   0.0000   0.3919
   4.300   1.3767   0.01183   0.00481  -0.2045  0.0444  0.1650  -1.9136   0.0000   0.0000   0.0000   0.3905
   4.400   1.3875   0.01190   0.00491  -0.2045  0.0417  0.1931  -1.9485   0.0000   0.0000   0.0000   0.3892
   4.500   1.3977   0.01198   0.00499  -0.2043  0.0391  0.1955  -1.9826   0.0000   0.0000   0.0000   0.3879
   4.600   1.4083   0.01205   0.00507  -0.2043  0.0381  0.2094  -2.0178   0.0000   0.0000   0.0000   0.3866
   4.700   1.4196   0.01208   0.00514  -0.2044  0.0379  0.2345  -2.0543   0.0000   0.0000   0.0000   0.3854
   4.800   1.4304   0.01214   0.00521  -0.2044  0.0377  0.2498  -2.0904   0.0000   0.0000   0.0000   0.3841
   4.900   1.4412   0.01219   0.00529  -0.2044  0.0375  0.2697  -2.1268   0.0000   0.0000   0.0000   0.3829
   5.000   1.4528   0.01222   0.00538  -0.2046  0.0372  0.3058  -2.1644   0.0000   0.0000   0.0000   0.3817
   5.100   1.4632   0.01228   0.00545  -0.2045  0.0369  0.3170  -2.2006   0.0000   0.0000   0.0000   0.3805
   5.200   1.4743   0.01233   0.00555  -0.2046  0.0365  0.3449  -2.2383   0.0000   0.0000   0.0000   0.3794
   5.300   1.4853   0.01238   0.00564  -0.2047  0.0359  0.3713  -2.2761   0.0000   0.0000   0.0000   0.3782
   5.400   1.4974   0.01240   0.00575  -0.2050  0.0353  0.4302  -2.3158   0.0000   0.0000   0.0000   0.3772
   5.500   1.5054   0.01268   0.00601  -0.2045  0.0247  0.4610  -2.3514   0.0000   0.0000   0.0000   0.3760
   5.600   1.5144   0.01285   0.00617  -0.2042  0.0215  0.4722  -2.3761   0.0000   0.0000   0.0000   0.3748
   5.700   1.5240   0.01297   0.00630  -0.2039  0.0182  0.4822  -2.4060   0.0000   0.0000   0.0000   0.3736
   5.800   1.5339   0.01307   0.00640  -0.2038  0.0168  0.4902  -2.4411   0.0000   0.0000   0.0000   0.3725
   6.000   1.5482   0.01364   0.00695  -0.2023  0.0038  0.4983  -2.5149   0.0000   0.0000   0.0000   0.3700
   6.100   1.5575   0.01376   0.00706  -0.2020  0.0036  0.4996  -2.5508   0.0000   0.0000   0.0000   0.3689
   6.200   1.5669   0.01387   0.00717  -0.2017  0.0033  0.5020  -2.5870   0.0000   0.0000   0.0000   0.3677
   6.300   1.5763   0.01397   0.00728  -0.2014  0.0032  0.5075  -2.6232   0.0000   0.0000   0.0000   0.3666
   6.400   1.5857   0.01408   0.00740  -0.2011  0.0030  0.5128  -2.6596   0.0000   0.0000   0.0000   0.3655
   6.500   1.5951   0.01419   0.00751  -0.2008  0.0028  0.5174  -2.6960   0.0000   0.0000   0.0000   0.3644
   6.600   1.6045   0.01429   0.00762  -0.2006  0.0027  0.5224  -2.7323   0.0000   0.0000   0.0000   0.3633
   6.700   1.6137   0.01440   0.00774  -0.2003  0.0025  0.5286  -2.7687   0.0000   0.0000   0.0000   0.3623
   6.800   1.6228   0.01452   0.00786  -0.1999  0.0023  0.5326  -2.8048   0.0000   0.0000   0.0000   0.3612
   6.900   1.6321   0.01463   0.00798  -0.1996  0.0022  0.5441  -2.8413   0.0000   0.0000   0.0000   0.3602
   7.000   1.6413   0.01473   0.00810  -0.1993  0.0020  0.5524  -2.8780   0.0000   0.0000   0.0000   0.3591
   7.100   1.6502   0.01485   0.00822  -0.1989  0.0019  0.5558  -2.9144   0.0000   0.0000   0.0000   0.3581
   7.200   1.6589   0.01497   0.00834  -0.1985  0.0018  0.5581  -2.9506   0.0000   0.0000   0.0000   0.3570
   7.300   1.6676   0.01510   0.00847  -0.1981  0.0017  0.5602  -2.9869   0.0000   0.0000   0.0000   0.3560
   7.400   1.6760   0.01522   0.00859  -0.1977  0.0015  0.5621  -3.0230   0.0000   0.0000   0.0000   0.3549
   7.500   1.6839   0.01534   0.00872  -0.1971  0.0014  0.5636  -3.0581   0.0000   0.0000   0.0000   0.3539
   7.600   1.6908   0.01547   0.00884  -0.1963  0.0014  0.5648  -3.0915   0.0000   0.0000   0.0000   0.3528
   7.700   1.6976   0.01560   0.00898  -0.1955  0.0014  0.5678  -3.1250   0.0000   0.0000   0.0000   0.3517
   7.800   1.7048   0.01574   0.00912  -0.1948  0.0013  0.5751  -3.1592   0.0000   0.0000   0.0000   0.3506
   7.900   1.7120   0.01587   0.00927  -0.1941  0.0013  0.5823  -3.1937   0.0000   0.0000   0.0000   0.3495
   8.000   1.7192   0.01601   0.00942  -0.1934  0.0013  0.5887  -3.2281   0.0000   0.0000   0.0000   0.3485
   8.100   1.7263   0.01615   0.00958  -0.1927  0.0013  0.5939  -3.2625   0.0000   0.0000   0.0000   0.3474
   8.200   1.7333   0.01630   0.00974  -0.1920  0.0013  0.5960  -3.2970   0.0000   0.0000   0.0000   0.3464
   8.300   1.7406   0.01645   0.00991  -0.1914  0.0013  0.6067  -3.3321   0.0000   0.0000   0.0000   0.3454
   8.400   1.7479   0.01660   0.01008  -0.1908  0.0013  0.6190  -3.3672   0.0000   0.0000   0.0000   0.3444
   8.500   1.7548   0.01676   0.01026  -0.1900  0.0013  0.6263  -3.4016   0.0000   0.0000   0.0000   0.3434
   8.600   1.7615   0.01693   0.01043  -0.1893  0.0013  0.6300  -3.4359   0.0000   0.0000   0.0000   0.3424
   8.700   1.7686   0.01710   0.01062  -0.1886  0.0013  0.6419  -3.4710   0.0000   0.0000   0.0000   0.3414
   8.800   1.7755   0.01727   0.01081  -0.1879  0.0013  0.6508  -3.5058   0.0000   0.0000   0.0000   0.3404
   8.900   1.7821   0.01745   0.01101  -0.1872  0.0013  0.6573  -3.5402   0.0000   0.0000   0.0000   0.3394
   9.000   1.7887   0.01764   0.01121  -0.1865  0.0013  0.6637  -3.5747   0.0000   0.0000   0.0000   0.3384
   9.100   1.7956   0.01783   0.01142  -0.1858  0.0013  0.6741  -3.6098   0.0000   0.0000   0.0000   0.3375
   9.200   1.8023   0.01803   0.01163  -0.1851  0.0013  0.6812  -3.6477   0.0000   0.0000   0.0000   0.3365
   9.300   1.8085   0.01824   0.01185  -0.1844  0.0013  0.6860  -3.6930   0.0000   0.0000   0.0000   0.3356
   9.400   1.8146   0.01845   0.01208  -0.1836  0.0013  0.6891  -3.7381   0.0000   0.0000   0.0000   0.3346
   9.500   1.8206   0.01868   0.01231  -0.1828  0.0012  0.6912  -3.7830   0.0000   0.0000   0.0000   0.3336
   9.600   1.8267   0.01890   0.01255  -0.1820  0.0012  0.6967  -3.8283   0.0000   0.0000   0.0000   0.3327
   9.700   1.8326   0.01914   0.01281  -0.1812  0.0012  0.7030  -3.8731   0.0000   0.0000   0.0000   0.3318
   9.800   1.8383   0.01939   0.01307  -0.1804  0.0012  0.7083  -3.9176   0.0000   0.0000   0.0000   0.3308
   9.900   1.8441   0.01964   0.01334  -0.1796  0.0012  0.7132  -3.9624   0.0000   0.0000   0.0000   0.3299
  10.000   1.8499   0.01990   0.01361  -0.1788  0.0012  0.7176  -4.0074   0.0000   0.0000   0.0000   0.3290
  10.100   1.8555   0.02017   0.01390  -0.1780  0.0012  0.7222  -4.0518   0.0000   0.0000   0.0000   0.3281
  10.200   1.8611   0.02046   0.01421  -0.1773  0.0012  0.7322  -4.0963   0.0000   0.0000   0.0000   0.3272
  10.300   1.8667   0.02075   0.01452  -0.1765  0.0012  0.7409  -4.1409   0.0000   0.0000   0.0000   0.3263
  10.400   1.8722   0.02104   0.01485  -0.1757  0.0012  0.7475  -4.1998   0.0000   0.0000   0.0000   0.3254
  10.500   1.8775   0.02136   0.01519  -0.1749  0.0012  0.7549  -4.2764   0.0000   0.0000   0.0000   0.3245
  10.600   1.8827   0.02169   0.01555  -0.1742  0.0012  0.7653  -4.3532   0.0000   0.0000   0.0000   0.3237
  10.700   1.8879   0.02202   0.01591  -0.1734  0.0012  0.7740  -4.4283   0.0000   0.0000   0.0000   0.3228
  10.800   1.8933   0.02236   0.01628  -0.1727  0.0012  0.7848  -4.5030   0.0000   0.0000   0.0000   0.3219
  10.900   1.8984   0.02272   0.01668  -0.1719  0.0012  0.7976  -4.5746   0.0000   0.0000   0.0000   0.3211
  11.000   1.9029   0.02311   0.01711  -0.1711  0.0012  0.8082  -4.6417   0.0000   0.0000   0.0000   0.3202
  11.100   1.9078   0.02351   0.01755  -0.1704  0.0012  0.8223  -4.7079   0.0000   0.0000   0.0000   0.3194
  11.200   1.9126   0.02391   0.01801  -0.1696  0.0012  0.8371  -4.7710   0.0000   0.0000   0.0000   0.3186
  11.300   1.9167   0.02437   0.01854  -0.1688  0.0012  0.8568  -4.8263   0.0000   0.0000   0.0000   0.3178
  11.400   1.9207   0.02489   0.01917  -0.1681  0.0012  0.9061  -4.8722   0.0000   0.0000   0.0000   0.3170


