xflr5 v6.59

 Calculated polar for: WORTMANN FX 63-137 AIRFOIL

 1 1 Reynolds number fixed          Mach number fixed         

 xtrf =   1.000 (top)        1.000 (bottom)
 Mach =   0.000     Re =     3.700 e 6     Ncrit =   9.000

  alpha     CL        CD       CDp       Cm    Top Xtr Bot Xtr   Cpmin    Chinge    XCp    
 ------- -------- --------- --------- -------- ------- ------- -------- --------- ---------
   0.000   0.9043   0.00972   0.00258  -0.2051  0.1254  0.0188  -1.1347   0.0000   0.0000   0.0000   0.4750
   0.100   0.9157   0.00975   0.00260  -0.2052  0.1241  0.0187  -1.1451   0.0000   0.0000   0.0000   0.4721
   0.200   0.9271   0.00977   0.00263  -0.2052  0.1239  0.0185  -1.1555   0.0000   0.0000   0.0000   0.4692
   0.300   0.9384   0.00980   0.00265  -0.2053  0.1236  0.0183  -1.1659   0.0000   0.0000   0.0000   0.4664
   0.400   0.9498   0.00983   0.00268  -0.2053  0.1233  0.0181  -1.1763   0.0000   0.0000   0.0000   0.4637
   0.500   0.9611   0.00985   0.00271  -0.2053  0.1230  0.0180  -1.1868   0.0000   0.0000   0.0000   0.4611
   0.600   0.9724   0.00988   0.00274  -0.2053  0.1226  0.0179  -1.1972   0.0000   0.0000   0.0000   0.4585
   0.700   0.9837   0.00991   0.00277  -0.2054  0.1222  0.0178  -1.2088   0.0000   0.0000   0.0000   0.4559
   0.800   0.9950   0.00994   0.00280  -0.2054  0.1216  0.0177  -1.2211   0.0000   0.0000   0.0000   0.4534
   0.900   1.0062   0.00998   0.00284  -0.2054  0.1212  0.0179  -1.2335   0.0000   0.0000   0.0000   0.4510
   1.000   1.0174   0.01001   0.00288  -0.2054  0.1203  0.0180  -1.2458   0.0000   0.0000   0.0000   0.4486
   1.100   1.0286   0.01005   0.00292  -0.2054  0.1195  0.0186  -1.2582   0.0000   0.0000   0.0000   0.4463
   1.200   1.0378   0.01024   0.00303  -0.2050  0.1044  0.0236  -1.2698   0.0000   0.0000   0.0000   0.4440
   1.300   1.0490   0.01029   0.00309  -0.2051  0.1023  0.0257  -1.2823   0.0000   0.0000   0.0000   0.4418
   1.400   1.0602   0.01032   0.00315  -0.2051  0.1012  0.0339  -1.2970   0.0000   0.0000   0.0000   0.4396
   1.500   1.0712   0.01038   0.00319  -0.2051  0.1000  0.0354  -1.3121   0.0000   0.0000   0.0000   0.4375
   1.600   1.0821   0.01043   0.00324  -0.2051  0.0988  0.0364  -1.3273   0.0000   0.0000   0.0000   0.4354
   1.700   1.0931   0.01048   0.00328  -0.2050  0.0977  0.0370  -1.3424   0.0000   0.0000   0.0000   0.4333
   1.800   1.1040   0.01054   0.00332  -0.2050  0.0965  0.0375  -1.3575   0.0000   0.0000   0.0000   0.4313
   1.900   1.1149   0.01059   0.00336  -0.2050  0.0952  0.0379  -1.3725   0.0000   0.0000   0.0000   0.4293
   2.000   1.1259   0.01063   0.00340  -0.2049  0.0939  0.0382  -1.3876   0.0000   0.0000   0.0000   0.4273
   2.100   1.1369   0.01068   0.00345  -0.2049  0.0924  0.0389  -1.4027   0.0000   0.0000   0.0000   0.4254
   2.200   1.1478   0.01073   0.00349  -0.2049  0.0908  0.0410  -1.4178   0.0000   0.0000   0.0000   0.4235
   2.300   1.1588   0.01077   0.00355  -0.2049  0.0894  0.0484  -1.4330   0.0000   0.0000   0.0000   0.4217
   2.400   1.1697   0.01082   0.00360  -0.2048  0.0866  0.0506  -1.4483   0.0000   0.0000   0.0000   0.4199
   2.500   1.1809   0.01086   0.00367  -0.2049  0.0840  0.0634  -1.4636   0.0000   0.0000   0.0000   0.4181
   2.600   1.1917   0.01092   0.00372  -0.2048  0.0826  0.0663  -1.4786   0.0000   0.0000   0.0000   0.4163
   2.700   1.2024   0.01099   0.00379  -0.2048  0.0801  0.0743  -1.4992   0.0000   0.0000   0.0000   0.4146
   2.800   1.2111   0.01123   0.00397  -0.2043  0.0646  0.0831  -1.5219   0.0000   0.0000   0.0000   0.4129
   2.900   1.2218   0.01131   0.00405  -0.2043  0.0616  0.1001  -1.5402   0.0000   0.0000   0.0000   0.4112
   3.000   1.2323   0.01139   0.00412  -0.2042  0.0592  0.1020  -1.5592   0.0000   0.0000   0.0000   0.4096
   3.100   1.2429   0.01145   0.00417  -0.2041  0.0568  0.1035  -1.5801   0.0000   0.0000   0.0000   0.4080
   3.200   1.2535   0.01151   0.00423  -0.2040  0.0545  0.1095  -1.6019   0.0000   0.0000   0.0000   0.4064
   3.300   1.2643   0.01157   0.00430  -0.2040  0.0528  0.1161  -1.6241   0.0000   0.0000   0.0000   0.4048
   3.400   1.2752   0.01162   0.00436  -0.2040  0.0517  0.1225  -1.6468   0.0000   0.0000   0.0000   0.4033
   3.500   1.2865   0.01165   0.00442  -0.2040  0.0514  0.1437  -1.6706   0.0000   0.0000   0.0000   0.4018
   3.600   1.2971   0.01171   0.00448  -0.2040  0.0511  0.1460  -1.6939   0.0000   0.0000   0.0000   0.4003
   3.700   1.3077   0.01177   0.00454  -0.2039  0.0507  0.1532  -1.7173   0.0000   0.0000   0.0000   0.3988
   3.800   1.3185   0.01183   0.00461  -0.2039  0.0503  0.1616  -1.7411   0.0000   0.0000   0.0000   0.3973
   3.900   1.3292   0.01187   0.00466  -0.2038  0.0513  0.1603  -1.7659   0.0000   0.0000   0.0000   0.3959
   4.000   1.3403   0.01191   0.00473  -0.2038  0.0512  0.1751  -1.8002   0.0000   0.0000   0.0000   0.3945
   4.100   1.3514   0.01195   0.00480  -0.2039  0.0510  0.1941  -1.8349   0.0000   0.0000   0.0000   0.3932
   4.200   1.3620   0.01201   0.00487  -0.2038  0.0507  0.2043  -1.8692   0.0000   0.0000   0.0000   0.3918
   4.300   1.3730   0.01206   0.00494  -0.2039  0.0502  0.2207  -1.9043   0.0000   0.0000   0.0000   0.3905
   4.400   1.3842   0.01210   0.00503  -0.2039  0.0491  0.2480  -1.9401   0.0000   0.0000   0.0000   0.3892
   4.500   1.3945   0.01219   0.00513  -0.2038  0.0472  0.2630  -1.9749   0.0000   0.0000   0.0000   0.3879
   4.600   1.4057   0.01226   0.00525  -0.2040  0.0446  0.3019  -2.0111   0.0000   0.0000   0.0000   0.3866
   4.700   1.4156   0.01237   0.00536  -0.2038  0.0421  0.3091  -2.0453   0.0000   0.0000   0.0000   0.3853
   4.800   1.4263   0.01244   0.00545  -0.2038  0.0398  0.3321  -2.0808   0.0000   0.0000   0.0000   0.3841
   4.900   1.4377   0.01248   0.00555  -0.2039  0.0384  0.3659  -2.1174   0.0000   0.0000   0.0000   0.3829
   5.000   1.4481   0.01255   0.00563  -0.2038  0.0381  0.3763  -2.1531   0.0000   0.0000   0.0000   0.3817
   5.100   1.4590   0.01260   0.00572  -0.2039  0.0379  0.3966  -2.1900   0.0000   0.0000   0.0000   0.3805
   5.200   1.4701   0.01265   0.00581  -0.2040  0.0376  0.4249  -2.2273   0.0000   0.0000   0.0000   0.3794
   5.300   1.4811   0.01270   0.00591  -0.2040  0.0374  0.4543  -2.2648   0.0000   0.0000   0.0000   0.3782
   5.400   1.4922   0.01275   0.00602  -0.2041  0.0370  0.4879  -2.3027   0.0000   0.0000   0.0000   0.3771
   5.500   1.5024   0.01283   0.00611  -0.2040  0.0366  0.4981  -2.3394   0.0000   0.0000   0.0000   0.3759
   5.600   1.5122   0.01292   0.00620  -0.2038  0.0361  0.4995  -2.3759   0.0000   0.0000   0.0000   0.3747
   5.700   1.5218   0.01302   0.00629  -0.2035  0.0353  0.5022  -2.4127   0.0000   0.0000   0.0000   0.3736
   5.800   1.5289   0.01331   0.00653  -0.2028  0.0267  0.5075  -2.4502   0.0000   0.0000   0.0000   0.3723
   5.900   1.5376   0.01349   0.00668  -0.2024  0.0233  0.5142  -2.4789   0.0000   0.0000   0.0000   0.3711
   6.100   1.5500   0.01418   0.00734  -0.2006  0.0043  0.5239  -2.5341   0.0000   0.0000   0.0000   0.3686
   6.200   1.5591   0.01430   0.00746  -0.2003  0.0040  0.5269  -2.5705   0.0000   0.0000   0.0000   0.3675
   6.300   1.5682   0.01442   0.00758  -0.1999  0.0038  0.5291  -2.6067   0.0000   0.0000   0.0000   0.3663
   6.400   1.5773   0.01455   0.00770  -0.1996  0.0037  0.5309  -2.6423   0.0000   0.0000   0.0000   0.3652
   6.500   1.5862   0.01467   0.00782  -0.1992  0.0035  0.5331  -2.6780   0.0000   0.0000   0.0000   0.3641
   6.600   1.5954   0.01478   0.00795  -0.1989  0.0033  0.5435  -2.7142   0.0000   0.0000   0.0000   0.3630
   6.700   1.6047   0.01489   0.00807  -0.1986  0.0032  0.5533  -2.7505   0.0000   0.0000   0.0000   0.3620
   6.800   1.6137   0.01501   0.00820  -0.1983  0.0030  0.5600  -2.7865   0.0000   0.0000   0.0000   0.3609
   6.900   1.6225   0.01513   0.00832  -0.1979  0.0028  0.5634  -2.8221   0.0000   0.0000   0.0000   0.3598
   7.000   1.6311   0.01525   0.00845  -0.1974  0.0026  0.5647  -2.8575   0.0000   0.0000   0.0000   0.3587
   7.100   1.6396   0.01538   0.00857  -0.1970  0.0025  0.5666  -2.8928   0.0000   0.0000   0.0000   0.3577
   7.200   1.6477   0.01551   0.00871  -0.1965  0.0023  0.5721  -2.9276   0.0000   0.0000   0.0000   0.3566
   7.300   1.6550   0.01563   0.00884  -0.1958  0.0021  0.5784  -2.9612   0.0000   0.0000   0.0000   0.3555
   7.400   1.6622   0.01575   0.00898  -0.1951  0.0020  0.5844  -2.9949   0.0000   0.0000   0.0000   0.3544
   7.500   1.6695   0.01589   0.00913  -0.1944  0.0018  0.5903  -3.0288   0.0000   0.0000   0.0000   0.3533
   7.600   1.6767   0.01602   0.00927  -0.1937  0.0017  0.5953  -3.0628   0.0000   0.0000   0.0000   0.3522
   7.700   1.6839   0.01616   0.00942  -0.1930  0.0015  0.6027  -3.0968   0.0000   0.0000   0.0000   0.3511
   7.800   1.6914   0.01630   0.00958  -0.1924  0.0014  0.6144  -3.1316   0.0000   0.0000   0.0000   0.3501
   7.900   1.6988   0.01645   0.00974  -0.1918  0.0014  0.6228  -3.1661   0.0000   0.0000   0.0000   0.3490
   8.000   1.7059   0.01660   0.00990  -0.1911  0.0014  0.6276  -3.2003   0.0000   0.0000   0.0000   0.3480
   8.100   1.7128   0.01676   0.01006  -0.1903  0.0013  0.6319  -3.2343   0.0000   0.0000   0.0000   0.3469
   8.200   1.7199   0.01692   0.01024  -0.1897  0.0013  0.6406  -3.2685   0.0000   0.0000   0.0000   0.3459
   8.300   1.7269   0.01708   0.01043  -0.1890  0.0013  0.6456  -3.3029   0.0000   0.0000   0.0000   0.3449
   8.400   1.7339   0.01724   0.01061  -0.1883  0.0013  0.6531  -3.3375   0.0000   0.0000   0.0000   0.3439
   8.500   1.7407   0.01742   0.01080  -0.1876  0.0013  0.6588  -3.3716   0.0000   0.0000   0.0000   0.3429
   8.600   1.7474   0.01760   0.01099  -0.1869  0.0013  0.6668  -3.4057   0.0000   0.0000   0.0000   0.3419
   8.700   1.7543   0.01778   0.01120  -0.1862  0.0013  0.6760  -3.4403   0.0000   0.0000   0.0000   0.3409
   8.800   1.7611   0.01797   0.01140  -0.1855  0.0013  0.6821  -3.4747   0.0000   0.0000   0.0000   0.3399
   8.900   1.7678   0.01817   0.01160  -0.1848  0.0013  0.6863  -3.5090   0.0000   0.0000   0.0000   0.3389
   9.000   1.7741   0.01837   0.01182  -0.1840  0.0013  0.6893  -3.5428   0.0000   0.0000   0.0000   0.3379
   9.100   1.7803   0.01859   0.01204  -0.1833  0.0013  0.6915  -3.5764   0.0000   0.0000   0.0000   0.3370
   9.200   1.7867   0.01880   0.01227  -0.1825  0.0013  0.6978  -3.6104   0.0000   0.0000   0.0000   0.3360
   9.300   1.7930   0.01902   0.01250  -0.1818  0.0013  0.7038  -3.6480   0.0000   0.0000   0.0000   0.3350
   9.400   1.7992   0.01925   0.01275  -0.1811  0.0013  0.7090  -3.6925   0.0000   0.0000   0.0000   0.3341
   9.500   1.8049   0.01949   0.01301  -0.1802  0.0013  0.7139  -3.7362   0.0000   0.0000   0.0000   0.3331
   9.600   1.8107   0.01974   0.01327  -0.1794  0.0013  0.7183  -3.7799   0.0000   0.0000   0.0000   0.3322
   9.800   1.8227   0.02026   0.01383  -0.1780  0.0013  0.7333  -3.8686   0.0000   0.0000   0.0000   0.3304
   9.900   1.8282   0.02054   0.01414  -0.1772  0.0012  0.7415  -3.9119   0.0000   0.0000   0.0000   0.3294
  10.000   1.8336   0.02083   0.01445  -0.1764  0.0012  0.7479  -3.9549   0.0000   0.0000   0.0000   0.3285
  10.100   1.8393   0.02113   0.01477  -0.1756  0.0012  0.7558  -3.9985   0.0000   0.0000   0.0000   0.3276
  10.200   1.8451   0.02143   0.01510  -0.1749  0.0012  0.7658  -4.0423   0.0000   0.0000   0.0000   0.3267
  10.300   1.8503   0.02175   0.01545  -0.1741  0.0012  0.7745  -4.0846   0.0000   0.0000   0.0000   0.3259
  10.400   1.8556   0.02208   0.01581  -0.1734  0.0012  0.7853  -4.1270   0.0000   0.0000   0.0000   0.3250
  10.500   1.8611   0.02241   0.01618  -0.1727  0.0012  0.7976  -4.1699   0.0000   0.0000   0.0000   0.3241
  10.600   1.8663   0.02277   0.01658  -0.1719  0.0012  0.8083  -4.2109   0.0000   0.0000   0.0000   0.3233
  10.700   1.8713   0.02314   0.01700  -0.1712  0.0012  0.8221  -4.2538   0.0000   0.0000   0.0000   0.3224
  10.800   1.8762   0.02353   0.01743  -0.1704  0.0012  0.8365  -4.3204   0.0000   0.0000   0.0000   0.3216
  10.900   1.8814   0.02392   0.01788  -0.1697  0.0013  0.8559  -4.3859   0.0000   0.0000   0.0000   0.3208
  11.000   1.8868   0.02432   0.01838  -0.1691  0.0013  0.8931  -4.4487   0.0000   0.0000   0.0000   0.3200


