xflr5 v6.59

 Calculated polar for: WORTMANN FX 63-137 AIRFOIL

 1 1 Reynolds number fixed          Mach number fixed         

 xtrf =   1.000 (top)        1.000 (bottom)
 Mach =   0.000     Re =     0.100 e 6     Ncrit =   9.000

  alpha     CL        CD       CDp       Cm    Top Xtr Bot Xtr   Cpmin    Chinge    XCp    
 ------- -------- --------- --------- -------- ------- ------- -------- --------- ---------
   0.000   0.6986   0.02814   0.02091  -0.1728  0.7817  0.7046  -0.9367   0.0000   0.0000   0.0000   0.4966
   0.100   0.7164   0.02786   0.02060  -0.1736  0.7805  0.7105  -0.9511   0.0000   0.0000   0.0000   0.4913
   0.200   0.7369   0.02756   0.02025  -0.1750  0.7793  0.7168  -0.9671   0.0000   0.0000   0.0000   0.4863
   0.300   0.7581   0.02726   0.01989  -0.1765  0.7782  0.7223  -0.9836   0.0000   0.0000   0.0000   0.4815
   0.500   0.7442   0.02870   0.02143  -0.1714  0.7631  0.7275  -0.9748   0.0000   0.0000   0.0000   0.4788
   0.600   0.7571   0.02851   0.02124  -0.1714  0.7608  0.7321  -0.9859   0.0000   0.0000   0.0000   0.4746
   0.700   0.7721   0.02829   0.02100  -0.1717  0.7587  0.7372  -0.9983   0.0000   0.0000   0.0000   0.4704
   0.800   0.7896   0.02803   0.02071  -0.1725  0.7569  0.7427  -1.0125   0.0000   0.0000   0.0000   0.4664
   0.900   0.8099   0.02773   0.02037  -0.1740  0.7554  0.7481  -1.0306   0.0000   0.0000   0.0000   0.4625
   1.000   0.8279   0.02738   0.02000  -0.1749  0.7539  0.7520  -1.0474   0.0000   0.0000   0.0000   0.4587
   1.100   0.8439   0.02704   0.01964  -0.1752  0.7525  0.7557  -1.0629   0.0000   0.0000   0.0000   0.4550
   1.200   0.8607   0.02672   0.01931  -0.1757  0.7512  0.7598  -1.0790   0.0000   0.0000   0.0000   0.4514
   1.400   0.8581   0.02796   0.02063  -0.1726  0.7384  0.7667  -1.0810   0.0000   0.0000   0.0000   0.4481
   1.500   0.8711   0.02791   0.02057  -0.1729  0.7352  0.7714  -1.0937   0.0000   0.0000   0.0000   0.4453
   1.600   0.8877   0.02775   0.02039  -0.1738  0.7325  0.7766  -1.1091   0.0000   0.0000   0.0000   0.4424
   1.700   0.9015   0.02748   0.02012  -0.1739  0.7302  0.7809  -1.1230   0.0000   0.0000   0.0000   0.4393
   1.800   0.9151   0.02715   0.01982  -0.1738  0.7282  0.7856  -1.1372   0.0000   0.0000   0.0000   0.4362
   1.900   0.9309   0.02680   0.01945  -0.1741  0.7264  0.7912  -1.1548   0.0000   0.0000   0.0000   0.4331
   2.000   0.9489   0.02643   0.01906  -0.1748  0.7246  0.7974  -1.1748   0.0000   0.0000   0.0000   0.4302
   2.100   0.9694   0.02609   0.01867  -0.1762  0.7230  0.8036  -1.1967   0.0000   0.0000   0.0000   0.4276
   2.200   0.9854   0.02575   0.01832  -0.1765  0.7213  0.8082  -1.2153   0.0000   0.0000   0.0000   0.4248
   2.300   0.9717   0.02685   0.01953  -0.1732  0.7125  0.8113  -1.2070   0.0000   0.0000   0.0000   0.4238
   2.400   0.9775   0.02702   0.01972  -0.1724  0.7076  0.8157  -1.2162   0.0000   0.0000   0.0000   0.4217
   2.500   0.9900   0.02689   0.01960  -0.1725  0.7042  0.8205  -1.2314   0.0000   0.0000   0.0000   0.4195
   2.600   1.0062   0.02665   0.01933  -0.1732  0.7015  0.8257  -1.2498   0.0000   0.0000   0.0000   0.4172
   2.700   1.0239   0.02632   0.01899  -0.1740  0.6991  0.8305  -1.2697   0.0000   0.0000   0.0000   0.4149
   2.800   1.0382   0.02593   0.01858  -0.1741  0.6969  0.8351  -1.2871   0.0000   0.0000   0.0000   0.4125
   2.900   1.0544   0.02552   0.01815  -0.1745  0.6948  0.8402  -1.3063   0.0000   0.0000   0.0000   0.4101
   3.000   1.0731   0.02509   0.01769  -0.1753  0.6928  0.8458  -1.3276   0.0000   0.0000   0.0000   0.4078
   3.100   1.0830   0.02519   0.01784  -0.1752  0.6887  0.8511  -1.3418   0.0000   0.0000   0.0000   0.4061
   3.200   1.0806   0.02574   0.01848  -0.1733  0.6818  0.8556  -1.3454   0.0000   0.0000   0.0000   0.4046
   3.300   1.0869   0.02574   0.01851  -0.1724  0.6773  0.8608  -1.3582   0.0000   0.0000   0.0000   0.4026
   3.400   1.0985   0.02552   0.01829  -0.1722  0.6736  0.8670  -1.3763   0.0000   0.0000   0.0000   0.4006
   3.500   1.1137   0.02520   0.01795  -0.1726  0.6704  0.8737  -1.3979   0.0000   0.0000   0.0000   0.3987
   3.600   1.1275   0.02481   0.01754  -0.1726  0.6677  0.8804  -1.4186   0.0000   0.0000   0.0000   0.3966
   3.700   1.1420   0.02439   0.01709  -0.1726  0.6652  0.8883  -1.4401   0.0000   0.0000   0.0000   0.3946
   3.900   1.1686   0.02382   0.01647  -0.1726  0.6596  0.9053  -1.4805   0.0000   0.0000   0.0000   0.3908
   4.000   1.1641   0.02435   0.01712  -0.1704  0.6532  0.9148  -1.4839   0.0000   0.0000   0.0000   0.3893
   4.100   1.1654   0.02445   0.01727  -0.1687  0.6481  0.9262  -1.4945   0.0000   0.0000   0.0000   0.3876
   4.200   1.1722   0.02430   0.01716  -0.1677  0.6438  0.9417  -1.5115   0.0000   0.0000   0.0000   0.3858
   4.400   1.2064   0.02358   0.01639  -0.1695  0.6363  1.0000  -1.5796   0.0000   0.0000   0.0000   0.3828
   4.500   1.2299   0.02316   0.01589  -0.1714  0.6327  1.0000  -1.6316   0.0000   0.0000   0.0000   0.3816
   4.600   1.2526   0.02285   0.01557  -0.1733  0.6290  1.0000  -1.6830   0.0000   0.0000   0.0000   0.3804
   4.700   1.2573   0.02330   0.01612  -0.1728  0.6225  1.0000  -1.7047   0.0000   0.0000   0.0000   0.3793
   4.800   1.2689   0.02340   0.01624  -0.1732  0.6166  1.0000  -1.7383   0.0000   0.0000   0.0000   0.3782
   4.900   1.2849   0.02327   0.01608  -0.1740  0.6112  1.0000  -1.7795   0.0000   0.0000   0.0000   0.3770
   5.000   1.3031   0.02302   0.01578  -0.1752  0.6063  1.0000  -1.8250   0.0000   0.0000   0.0000   0.3758
   5.100   1.3222   0.02276   0.01544  -0.1765  0.6019  1.0000  -1.8724   0.0000   0.0000   0.0000   0.3747
   5.200   1.3434   0.02252   0.01509  -0.1781  0.5977  1.0000  -1.9234   0.0000   0.0000   0.0000   0.3736
   5.300   1.3489   0.02286   0.01551  -0.1775  0.5919  1.0000  -1.9477   0.0000   0.0000   0.0000   0.3724
   5.400   1.3572   0.02308   0.01577  -0.1772  0.5859  1.0000  -1.9772   0.0000   0.0000   0.0000   0.3713
   5.500   1.3687   0.02315   0.01584  -0.1774  0.5805  1.0000  -2.0123   0.0000   0.0000   0.0000   0.3702
   5.600   1.3821   0.02314   0.01582  -0.1778  0.5757  1.0000  -2.0509   0.0000   0.0000   0.0000   0.3691
   5.700   1.3965   0.02311   0.01575  -0.1784  0.5716  1.0000  -2.0916   0.0000   0.0000   0.0000   0.3679
   5.800   1.4127   0.02304   0.01561  -0.1792  0.5678  1.0000  -2.1355   0.0000   0.0000   0.0000   0.3669
   5.900   1.4260   0.02311   0.01565  -0.1796  0.5636  1.0000  -2.1747   0.0000   0.0000   0.0000   0.3658
   6.000   1.4320   0.02341   0.01602  -0.1789  0.5585  1.0000  -2.2009   0.0000   0.0000   0.0000   0.3647
   6.100   1.4403   0.02360   0.01625  -0.1786  0.5533  1.0000  -2.2315   0.0000   0.0000   0.0000   0.3635
   6.200   1.4502   0.02371   0.01637  -0.1784  0.5483  1.0000  -2.2654   0.0000   0.0000   0.0000   0.3624
   6.300   1.4616   0.02375   0.01639  -0.1784  0.5436  1.0000  -2.3020   0.0000   0.0000   0.0000   0.3613
   6.400   1.4751   0.02371   0.01630  -0.1787  0.5389  1.0000  -2.3428   0.0000   0.0000   0.0000   0.3602
   6.500   1.4909   0.02365   0.01622  -0.1793  0.5343  1.0000  -2.3878   0.0000   0.0000   0.0000   0.3592
   6.600   1.4987   0.02386   0.01645  -0.1788  0.5291  1.0000  -2.4183   0.0000   0.0000   0.0000   0.3580
   6.700   1.5033   0.02413   0.01681  -0.1778  0.5232  1.0000  -2.4433   0.0000   0.0000   0.0000   0.3569
   6.800   1.5101   0.02432   0.01703  -0.1772  0.5173  1.0000  -2.4725   0.0000   0.0000   0.0000   0.3557
   6.900   1.5186   0.02442   0.01714  -0.1767  0.5115  1.0000  -2.5051   0.0000   0.0000   0.0000   0.3546
   7.000   1.5297   0.02445   0.01712  -0.1766  0.5060  1.0000  -2.5426   0.0000   0.0000   0.0000   0.3535
   7.100   1.5434   0.02443   0.01700  -0.1768  0.5006  1.0000  -2.5852   0.0000   0.0000   0.0000   0.3524
   7.200   1.5485   0.02470   0.01733  -0.1759  0.4952  1.0000  -2.6116   0.0000   0.0000   0.0000   0.3513
   7.300   1.5535   0.02495   0.01763  -0.1749  0.4893  1.0000  -2.6380   0.0000   0.0000   0.0000   0.3501
   7.400   1.5600   0.02513   0.01784  -0.1742  0.4834  1.0000  -2.6674   0.0000   0.0000   0.0000   0.3490
   7.500   1.5687   0.02523   0.01791  -0.1737  0.4776  1.0000  -2.7011   0.0000   0.0000   0.0000   0.3479
   7.600   1.5796   0.02529   0.01789  -0.1735  0.4719  1.0000  -2.7393   0.0000   0.0000   0.0000   0.3468
   7.700   1.5912   0.02541   0.01792  -0.1735  0.4663  1.0000  -2.7785   0.0000   0.0000   0.0000   0.3459
   7.800   1.5935   0.02574   0.01836  -0.1722  0.4608  1.0000  -2.7999   0.0000   0.0000   0.0000   0.3447
   7.900   1.5972   0.02603   0.01873  -0.1710  0.4547  1.0000  -2.8242   0.0000   0.0000   0.0000   0.3435
   8.000   1.6022   0.02627   0.01900  -0.1701  0.4487  1.0000  -2.8511   0.0000   0.0000   0.0000   0.3424
   8.100   1.6091   0.02646   0.01917  -0.1693  0.4428  1.0000  -2.8818   0.0000   0.0000   0.0000   0.3413
   8.200   1.6180   0.02660   0.01925  -0.1689  0.4371  1.0000  -2.9165   0.0000   0.0000   0.0000   0.3403
   8.300   1.6241   0.02686   0.01951  -0.1681  0.4317  1.0000  -2.9455   0.0000   0.0000   0.0000   0.3392
   8.400   1.6266   0.02718   0.01990  -0.1667  0.4263  1.0000  -2.9677   0.0000   0.0000   0.0000   0.3381
   8.500   1.6301   0.02746   0.02022  -0.1655  0.4208  1.0000  -2.9920   0.0000   0.0000   0.0000   0.3369
   8.600   1.6349   0.02772   0.02047  -0.1645  0.4151  1.0000  -3.0189   0.0000   0.0000   0.0000   0.3358
   8.700   1.6408   0.02795   0.02065  -0.1636  0.4095  1.0000  -3.0481   0.0000   0.0000   0.0000   0.3348
   8.800   1.6491   0.02816   0.02076  -0.1631  0.4038  1.0000  -3.0819   0.0000   0.0000   0.0000   0.3338
   8.900   1.6514   0.02854   0.02120  -0.1618  0.3984  1.0000  -3.1033   0.0000   0.0000   0.0000   0.3326
   9.000   1.6516   0.02897   0.02183  -0.1602  0.3924  1.0000  -3.1209   0.0000   0.0000   0.0000   0.3315
   9.100   1.6530   0.02937   0.02229  -0.1588  0.3860  1.0000  -3.1422   0.0000   0.0000   0.0000   0.3304
   9.200   1.6556   0.02973   0.02265  -0.1576  0.3794  1.0000  -3.1694   0.0000   0.0000   0.0000   0.3293
   9.300   1.6595   0.03007   0.02294  -0.1565  0.3732  1.0000  -3.1999   0.0000   0.0000   0.0000   0.3282
   9.400   1.6621   0.03048   0.02336  -0.1553  0.3674  1.0000  -3.2268   0.0000   0.0000   0.0000   0.3272
   9.500   1.6630   0.03096   0.02391  -0.1539  0.3614  1.0000  -3.2499   0.0000   0.0000   0.0000   0.3261
   9.600   1.6642   0.03143   0.02440  -0.1526  0.3550  1.0000  -3.2738   0.0000   0.0000   0.0000   0.3251
   9.700   1.6657   0.03190   0.02484  -0.1513  0.3487  1.0000  -3.2987   0.0000   0.0000   0.0000   0.3240
   9.800   1.6680   0.03236   0.02521  -0.1501  0.3423  1.0000  -3.3258   0.0000   0.0000   0.0000   0.3230
   9.900   1.6693   0.03291   0.02577  -0.1489  0.3359  1.0000  -3.3494   0.0000   0.0000   0.0000   0.3220
  10.000   1.6687   0.03355   0.02653  -0.1476  0.3288  1.0000  -3.3682   0.0000   0.0000   0.0000   0.3211
  10.100   1.6680   0.03420   0.02723  -0.1463  0.3213  1.0000  -3.3872   0.0000   0.0000   0.0000   0.3201
  10.200   1.6673   0.03486   0.02787  -0.1449  0.3138  1.0000  -3.4065   0.0000   0.0000   0.0000   0.3191
  10.300   1.6665   0.03556   0.02852  -0.1436  0.3066  1.0000  -3.4258   0.0000   0.0000   0.0000   0.3182
  10.400   1.6652   0.03632   0.02932  -0.1423  0.2989  1.0000  -3.4431   0.0000   0.0000   0.0000   0.3173
  10.500   1.6629   0.03716   0.03012  -0.1410  0.2910  1.0000  -3.4586   0.0000   0.0000   0.0000   0.3164
  10.600   1.6601   0.03804   0.03090  -0.1396  0.2834  1.0000  -3.4735   0.0000   0.0000   0.0000   0.3155
  10.700   1.6578   0.03896   0.03180  -0.1384  0.2753  1.0000  -3.4882   0.0000   0.0000   0.0000   0.3147
  10.800   1.6552   0.03996   0.03288  -0.1373  0.2655  1.0000  -3.5012   0.0000   0.0000   0.0000   0.3139
  10.900   1.6512   0.04106   0.03395  -0.1361  0.2559  1.0000  -3.5119   0.0000   0.0000   0.0000   0.3132
  11.000   1.6471   0.04219   0.03502  -0.1349  0.2475  1.0000  -3.5224   0.0000   0.0000   0.0000   0.3125
  11.100   1.6434   0.04334   0.03615  -0.1338  0.2391  1.0000  -3.5334   0.0000   0.0000   0.0000   0.3118
  11.200   1.6386   0.04460   0.03732  -0.1327  0.2315  1.0000  -3.5419   0.0000   0.0000   0.0000   0.3111
  11.300   1.6330   0.04591   0.03852  -0.1315  0.2244  1.0000  -3.5486   0.0000   0.0000   0.0000   0.3105
  11.400   1.6304   0.04710   0.03976  -0.1307  0.2157  1.0000  -3.5601   0.0000   0.0000   0.0000   0.3099
  11.500   1.6269   0.04838   0.04106  -0.1299  0.2060  1.0000  -3.5699   0.0000   0.0000   0.0000   0.3093
  11.600   1.6216   0.04982   0.04245  -0.1290  0.1981  1.0000  -3.5760   0.0000   0.0000   0.0000   0.3088
  11.700   1.6175   0.05121   0.04380  -0.1282  0.1911  1.0000  -3.5845   0.0000   0.0000   0.0000   0.3083
  11.800   1.6133   0.05262   0.04518  -0.1275  0.1844  1.0000  -3.5930   0.0000   0.0000   0.0000   0.3079
  11.900   1.6081   0.05416   0.04665  -0.1268  0.1786  1.0000  -3.5998   0.0000   0.0000   0.0000   0.3075
  12.000   1.6024   0.05576   0.04816  -0.1260  0.1732  1.0000  -3.6067   0.0000   0.0000   0.0000   0.3071
  12.100   1.6000   0.05710   0.04950  -0.1255  0.1667  1.0000  -3.6210   0.0000   0.0000   0.0000   0.3066
  12.200   1.5987   0.05839   0.05087  -0.1251  0.1593  1.0000  -3.6381   0.0000   0.0000   0.0000   0.3062
  12.300   1.5954   0.05988   0.05235  -0.1247  0.1530  1.0000  -3.6502   0.0000   0.0000   0.0000   0.3059
  12.400   1.5909   0.06149   0.05391  -0.1242  0.1480  1.0000  -3.6597   0.0000   0.0000   0.0000   0.3056
  12.500   1.5884   0.06291   0.05532  -0.1238  0.1435  1.0000  -3.6740   0.0000   0.0000   0.0000   0.3053
  12.600   1.5862   0.06433   0.05675  -0.1235  0.1393  1.0000  -3.6892   0.0000   0.0000   0.0000   0.3050
  12.700   1.5834   0.06583   0.05823  -0.1232  0.1356  1.0000  -3.7026   0.0000   0.0000   0.0000   0.3047
  12.800   1.5800   0.06740   0.05976  -0.1229  0.1323  1.0000  -3.7144   0.0000   0.0000   0.0000   0.3045
  12.900   1.5765   0.06898   0.06130  -0.1226  0.1292  1.0000  -3.7253   0.0000   0.0000   0.0000   0.3042
  13.000   1.5731   0.07052   0.06279  -0.1223  0.1262  1.0000  -3.7361   0.0000   0.0000   0.0000   0.3040
  13.100   1.5723   0.07177   0.06401  -0.1219  0.1233  1.0000  -3.7574   0.0000   0.0000   0.0000   0.3036
  13.200   1.5736   0.07285   0.06519  -0.1217  0.1210  1.0000  -3.8104   0.0000   0.0000   0.0000   0.3032
  13.300   1.5744   0.07399   0.06646  -0.1215  0.1185  1.0000  -3.8594   0.0000   0.0000   0.0000   0.3028
  13.400   1.5748   0.07516   0.06769  -0.1213  0.1161  1.0000  -3.9077   0.0000   0.0000   0.0000   0.3024
  13.500   1.5750   0.07636   0.06895  -0.1212  0.1138  1.0000  -3.9553   0.0000   0.0000   0.0000   0.3021
  13.600   1.5748   0.07761   0.07023  -0.1210  0.1117  1.0000  -4.0016   0.0000   0.0000   0.0000   0.3018
  13.700   1.5741   0.07893   0.07159  -0.1209  0.1098  1.0000  -4.0452   0.0000   0.0000   0.0000   0.3015
  13.800   1.5733   0.08028   0.07295  -0.1208  0.1081  1.0000  -4.0882   0.0000   0.0000   0.0000   0.3012
  13.900   1.5724   0.08163   0.07430  -0.1207  0.1064  1.0000  -4.1311   0.0000   0.0000   0.0000   0.3010
  14.000   1.5714   0.08299   0.07566  -0.1206  0.1049  1.0000  -4.1729   0.0000   0.0000   0.0000   0.3007
  14.100   1.5706   0.08429   0.07691  -0.1204  0.1034  1.0000  -4.2164   0.0000   0.0000   0.0000   0.3005
  14.200   1.5722   0.08536   0.07806  -0.1203  0.1022  1.0000  -4.2714   0.0000   0.0000   0.0000   0.3001
  14.300   1.5736   0.08647   0.07922  -0.1203  0.1009  1.0000  -4.3256   0.0000   0.0000   0.0000   0.2998
  14.400   1.5746   0.08763   0.08043  -0.1202  0.0997  1.0000  -4.3778   0.0000   0.0000   0.0000   0.2995
  14.500   1.5754   0.08883   0.08169  -0.1202  0.0985  1.0000  -4.4284   0.0000   0.0000   0.0000   0.2992
  14.600   1.5759   0.09006   0.08296  -0.1203  0.0973  1.0000  -4.4782   0.0000   0.0000   0.0000   0.2990
  14.700   1.5764   0.09132   0.08426  -0.1203  0.0961  1.0000  -4.5271   0.0000   0.0000   0.0000   0.2988
  14.800   1.5767   0.09261   0.08560  -0.1204  0.0950  1.0000  -4.5752   0.0000   0.0000   0.0000   0.2986
  14.900   1.5768   0.09391   0.08694  -0.1205  0.0938  1.0000  -4.6225   0.0000   0.0000   0.0000   0.2984
  15.000   1.5769   0.09523   0.08828  -0.1207  0.0927  1.0000  -4.6693   0.0000   0.0000   0.0000   0.2983
  15.100   1.5767   0.09658   0.08965  -0.1208  0.0916  1.0000  -4.7142   0.0000   0.0000   0.0000   0.2981
  15.200   1.5765   0.09793   0.09101  -0.1210  0.0905  1.0000  -4.7591   0.0000   0.0000   0.0000   0.2980
  15.300   1.5762   0.09929   0.09237  -0.1212  0.0893  1.0000  -4.8033   0.0000   0.0000   0.0000   0.2979
  15.400   1.5758   0.10060   0.09366  -0.1213  0.0876  1.0000  -4.8480   0.0000   0.0000   0.0000   0.2978
  15.500   1.5768   0.10158   0.09458  -0.1212  0.0852  1.0000  -4.9013   0.0000   0.0000   0.0000   0.2974
  15.600   1.5760   0.10311   0.09614  -0.1216  0.0837  1.0000  -4.9413   0.0000   0.0000   0.0000   0.2975
  15.700   1.5737   0.10501   0.09815  -0.1223  0.0824  1.0000  -4.9716   0.0000   0.0000   0.0000   0.2978
  15.800   1.5712   0.10695   0.10020  -0.1231  0.0809  1.0000  -5.0005   0.0000   0.0000   0.0000   0.2982
  15.900   1.5688   0.10888   0.10223  -0.1238  0.0791  1.0000  -5.0291   0.0000   0.0000   0.0000   0.2985
  16.000   1.5666   0.11074   0.10416  -0.1245  0.0773  1.0000  -5.0595   0.0000   0.0000   0.0000   0.2988
  16.100   1.5649   0.11253   0.10602  -0.1252  0.0755  1.0000  -5.0921   0.0000   0.0000   0.0000   0.2991
  16.200   1.5634   0.11426   0.10780  -0.1258  0.0741  1.0000  -5.1256   0.0000   0.0000   0.0000   0.2993
  16.300   1.5622   0.11591   0.10951  -0.1264  0.0729  1.0000  -5.1602   0.0000   0.0000   0.0000   0.2995
  16.400   1.5610   0.11758   0.11123  -0.1270  0.0718  1.0000  -5.1940   0.0000   0.0000   0.0000   0.2998
  16.500   1.5596   0.11926   0.11295  -0.1276  0.0707  1.0000  -5.2274   0.0000   0.0000   0.0000   0.3000
  16.600   1.5582   0.12095   0.11467  -0.1283  0.0697  1.0000  -5.2595   0.0000   0.0000   0.0000   0.3002
  16.700   1.5565   0.12266   0.11640  -0.1289  0.0687  1.0000  -5.2900   0.0000   0.0000   0.0000   0.3005
  16.800   1.5545   0.12442   0.11818  -0.1296  0.0678  1.0000  -5.3176   0.0000   0.0000   0.0000   0.3008
  16.900   1.5530   0.12609   0.11986  -0.1303  0.0669  1.0000  -5.3476   0.0000   0.0000   0.0000   0.3011
  17.000   1.5528   0.12763   0.12147  -0.1309  0.0661  1.0000  -5.3843   0.0000   0.0000   0.0000   0.3012
  17.100   1.5525   0.12918   0.12309  -0.1315  0.0653  1.0000  -5.4201   0.0000   0.0000   0.0000   0.3014
  17.200   1.5520   0.13074   0.12472  -0.1322  0.0645  1.0000  -5.4549   0.0000   0.0000   0.0000   0.3016
  17.300   1.5513   0.13236   0.12640  -0.1329  0.0637  1.0000  -5.4873   0.0000   0.0000   0.0000   0.3019
  17.400   1.5501   0.13405   0.12816  -0.1337  0.0629  1.0000  -5.5166   0.0000   0.0000   0.0000   0.3022
  17.500   1.5490   0.13576   0.12993  -0.1345  0.0622  1.0000  -5.5456   0.0000   0.0000   0.0000   0.3025
  17.600   1.5481   0.13740   0.13168  -0.1352  0.0615  1.0000  -5.5776   0.0000   0.0000   0.0000   0.3028
  17.700   1.5470   0.13905   0.13339  -0.1360  0.0607  1.0000  -5.6066   0.0000   0.0000   0.0000   0.3031
  17.800   1.5459   0.14069   0.13508  -0.1369  0.0600  1.0000  -5.6343   0.0000   0.0000   0.0000   0.3035
  17.900   1.5446   0.14235   0.13679  -0.1377  0.0593  1.0000  -5.6607   0.0000   0.0000   0.0000   0.3039
  18.000   1.5431   0.14408   0.13856  -0.1387  0.0586  1.0000  -5.6848   0.0000   0.0000   0.0000   0.3043
  18.100   1.5415   0.14582   0.14034  -0.1396  0.0580  1.0000  -5.7084   0.0000   0.0000   0.0000   0.3047
  18.200   1.5401   0.14753   0.14209  -0.1405  0.0573  1.0000  -5.7326   0.0000   0.0000   0.0000   0.3052
  18.300   1.5388   0.14922   0.14381  -0.1414  0.0566  1.0000  -5.7572   0.0000   0.0000   0.0000   0.3056
  18.400   1.5377   0.15089   0.14551  -0.1423  0.0559  1.0000  -5.7823   0.0000   0.0000   0.0000   0.3060
  18.500   1.5366   0.15255   0.14719  -0.1432  0.0552  1.0000  -5.8079   0.0000   0.0000   0.0000   0.3064
  18.600   1.5357   0.15419   0.14886  -0.1441  0.0545  1.0000  -5.8339   0.0000   0.0000   0.0000   0.3068
  18.700   1.5353   0.15571   0.15041  -0.1449  0.0538  1.0000  -5.8632   0.0000   0.0000   0.0000   0.3070
  18.800   1.5356   0.15706   0.15178  -0.1455  0.0530  1.0000  -5.8978   0.0000   0.0000   0.0000   0.3072
  18.900   1.5369   0.15817   0.15292  -0.1460  0.0522  1.0000  -5.9392   0.0000   0.0000   0.0000   0.3071
  19.000   1.5374   0.15952   0.15430  -0.1467  0.0516  1.0000  -5.9738   0.0000   0.0000   0.0000   0.3073
  19.100   1.5362   0.16138   0.15627  -0.1477  0.0513  1.0000  -5.9934   0.0000   0.0000   0.0000   0.3078
  19.200   1.5348   0.16329   0.15827  -0.1488  0.0510  1.0000  -6.0116   0.0000   0.0000   0.0000   0.3083
  19.300   1.5332   0.16528   0.16037  -0.1499  0.0506  1.0000  -6.0272   0.0000   0.0000   0.0000   0.3088
  19.400   1.5311   0.16742   0.16261  -0.1511  0.0502  1.0000  -6.0377   0.0000   0.0000   0.0000   0.3095
  19.500   1.5283   0.16972   0.16501  -0.1524  0.0498  1.0000  -6.0427   0.0000   0.0000   0.0000   0.3103
  19.600   1.5254   0.17210   0.16749  -0.1538  0.0493  1.0000  -6.0453   0.0000   0.0000   0.0000   0.3112
  19.700   1.5221   0.17459   0.17008  -0.1552  0.0486  1.0000  -6.0442   0.0000   0.0000   0.0000   0.3121
  19.800   1.5182   0.17726   0.17285  -0.1568  0.0479  1.0000  -6.0380   0.0000   0.0000   0.0000   0.3132
  19.900   1.5137   0.18014   0.17582  -0.1585  0.0471  1.0000  -6.0251   0.0000   0.0000   0.0000   0.3144
  20.000   1.5091   0.18305   0.17882  -0.1602  0.0461  1.0000  -6.0113   0.0000   0.0000   0.0000   0.3157


