xflr5 v6.59

 Calculated polar for: WORTMANN FX 63-137 AIRFOIL

 1 1 Reynolds number fixed          Mach number fixed         

 xtrf =   1.000 (top)        1.000 (bottom)
 Mach =   0.000     Re =     3.300 e 6     Ncrit =   9.000

  alpha     CL        CD       CDp       Cm    Top Xtr Bot Xtr   Cpmin    Chinge    XCp    
 ------- -------- --------- --------- -------- ------- ------- -------- --------- ---------
   0.000   0.9017   0.00988   0.00262  -0.2046  0.1346  0.0189  -1.1327   0.0000   0.0000   0.0000   0.4750
   0.100   0.9129   0.00992   0.00264  -0.2046  0.1326  0.0187  -1.1430   0.0000   0.0000   0.0000   0.4721
   0.200   0.9242   0.00995   0.00267  -0.2046  0.1303  0.0186  -1.1534   0.0000   0.0000   0.0000   0.4692
   0.300   0.9355   0.00998   0.00270  -0.2046  0.1281  0.0184  -1.1637   0.0000   0.0000   0.0000   0.4665
   0.400   0.9468   0.01002   0.00273  -0.2047  0.1260  0.0183  -1.1741   0.0000   0.0000   0.0000   0.4637
   0.500   0.9581   0.01005   0.00276  -0.2047  0.1244  0.0182  -1.1845   0.0000   0.0000   0.0000   0.4611
   0.600   0.9694   0.01008   0.00279  -0.2047  0.1239  0.0181  -1.1949   0.0000   0.0000   0.0000   0.4585
   0.700   0.9806   0.01010   0.00282  -0.2047  0.1236  0.0180  -1.2060   0.0000   0.0000   0.0000   0.4559
   0.800   0.9919   0.01013   0.00286  -0.2048  0.1233  0.0180  -1.2183   0.0000   0.0000   0.0000   0.4534
   0.900   1.0032   0.01017   0.00290  -0.2048  0.1230  0.0182  -1.2306   0.0000   0.0000   0.0000   0.4510
   1.000   1.0144   0.01020   0.00293  -0.2048  0.1227  0.0184  -1.2430   0.0000   0.0000   0.0000   0.4486
   1.100   1.0256   0.01023   0.00297  -0.2048  0.1222  0.0209  -1.2553   0.0000   0.0000   0.0000   0.4462
   1.200   1.0366   0.01027   0.00300  -0.2048  0.1217  0.0251  -1.2676   0.0000   0.0000   0.0000   0.4440
   1.300   1.0481   0.01030   0.00307  -0.2048  0.1210  0.0304  -1.2802   0.0000   0.0000   0.0000   0.4417
   1.400   1.0593   0.01033   0.00310  -0.2049  0.1198  0.0352  -1.2927   0.0000   0.0000   0.0000   0.4395
   1.500   1.0705   0.01037   0.00314  -0.2049  0.1190  0.0363  -1.3051   0.0000   0.0000   0.0000   0.4374
   1.600   1.0797   0.01056   0.00327  -0.2045  0.1030  0.0369  -1.3232   0.0000   0.0000   0.0000   0.4353
   1.700   1.0906   0.01062   0.00332  -0.2045  0.1018  0.0375  -1.3380   0.0000   0.0000   0.0000   0.4332
   1.800   1.1014   0.01068   0.00337  -0.2045  0.1006  0.0379  -1.3531   0.0000   0.0000   0.0000   0.4312
   1.900   1.1123   0.01074   0.00342  -0.2044  0.0993  0.0382  -1.3682   0.0000   0.0000   0.0000   0.4292
   2.000   1.1231   0.01080   0.00347  -0.2043  0.0981  0.0387  -1.3835   0.0000   0.0000   0.0000   0.4273
   2.100   1.1339   0.01086   0.00351  -0.2043  0.0968  0.0403  -1.3987   0.0000   0.0000   0.0000   0.4253
   2.200   1.1447   0.01091   0.00356  -0.2042  0.0955  0.0427  -1.4138   0.0000   0.0000   0.0000   0.4235
   2.300   1.1556   0.01096   0.00362  -0.2042  0.0942  0.0504  -1.4289   0.0000   0.0000   0.0000   0.4216
   2.400   1.1669   0.01100   0.00367  -0.2043  0.0926  0.0632  -1.4444   0.0000   0.0000   0.0000   0.4198
   2.500   1.1776   0.01107   0.00374  -0.2042  0.0872  0.0656  -1.4600   0.0000   0.0000   0.0000   0.4180
   2.600   1.1883   0.01113   0.00380  -0.2041  0.0841  0.0707  -1.4751   0.0000   0.0000   0.0000   0.4163
   2.700   1.1994   0.01117   0.00386  -0.2042  0.0832  0.0831  -1.4914   0.0000   0.0000   0.0000   0.4145
   2.800   1.2107   0.01121   0.00392  -0.2042  0.0816  0.1020  -1.5159   0.0000   0.0000   0.0000   0.4129
   3.000   1.2296   0.01153   0.00417  -0.2036  0.0642  0.1096  -1.5617   0.0000   0.0000   0.0000   0.4095
   3.100   1.2400   0.01162   0.00425  -0.2035  0.0619  0.1164  -1.5803   0.0000   0.0000   0.0000   0.4079
   3.200   1.2506   0.01169   0.00432  -0.2035  0.0597  0.1231  -1.5998   0.0000   0.0000   0.0000   0.4063
   3.300   1.2617   0.01174   0.00439  -0.2035  0.0575  0.1437  -1.6209   0.0000   0.0000   0.0000   0.4048
   3.400   1.2723   0.01181   0.00445  -0.2034  0.0554  0.1466  -1.6425   0.0000   0.0000   0.0000   0.4032
   3.500   1.2830   0.01187   0.00452  -0.2034  0.0535  0.1574  -1.6647   0.0000   0.0000   0.0000   0.4017
   3.600   1.2940   0.01191   0.00459  -0.2034  0.0521  0.1685  -1.6873   0.0000   0.0000   0.0000   0.4002
   3.700   1.3053   0.01195   0.00465  -0.2035  0.0516  0.1929  -1.7111   0.0000   0.0000   0.0000   0.3988
   3.800   1.3159   0.01201   0.00472  -0.2034  0.0513  0.1957  -1.7345   0.0000   0.0000   0.0000   0.3973
   3.900   1.3265   0.01206   0.00478  -0.2033  0.0521  0.1950  -1.7601   0.0000   0.0000   0.0000   0.3959
   4.000   1.3374   0.01211   0.00485  -0.2033  0.0517  0.2084  -1.7940   0.0000   0.0000   0.0000   0.3945
   4.100   1.3487   0.01214   0.00492  -0.2034  0.0515  0.2315  -1.8290   0.0000   0.0000   0.0000   0.3931
   4.200   1.3597   0.01218   0.00499  -0.2035  0.0514  0.2497  -1.8637   0.0000   0.0000   0.0000   0.3918
   4.300   1.3708   0.01223   0.00506  -0.2035  0.0511  0.2698  -1.8988   0.0000   0.0000   0.0000   0.3905
   4.400   1.3825   0.01225   0.00515  -0.2037  0.0508  0.3054  -1.9350   0.0000   0.0000   0.0000   0.3892
   4.500   1.3930   0.01232   0.00523  -0.2037  0.0501  0.3173  -1.9699   0.0000   0.0000   0.0000   0.3879
   4.600   1.4040   0.01237   0.00533  -0.2038  0.0488  0.3435  -2.0060   0.0000   0.0000   0.0000   0.3867
   4.700   1.4147   0.01245   0.00544  -0.2038  0.0467  0.3686  -2.0419   0.0000   0.0000   0.0000   0.3854
   4.800   1.4247   0.01257   0.00557  -0.2036  0.0443  0.3827  -2.0767   0.0000   0.0000   0.0000   0.3841
   4.900   1.4349   0.01266   0.00568  -0.2035  0.0420  0.3988  -2.1118   0.0000   0.0000   0.0000   0.3829
   5.000   1.4456   0.01274   0.00578  -0.2035  0.0401  0.4215  -2.1475   0.0000   0.0000   0.0000   0.3817
   5.100   1.4559   0.01281   0.00588  -0.2034  0.0387  0.4330  -2.1828   0.0000   0.0000   0.0000   0.3805
   5.200   1.4668   0.01287   0.00598  -0.2034  0.0381  0.4587  -2.2196   0.0000   0.0000   0.0000   0.3793
   5.300   1.4778   0.01292   0.00608  -0.2035  0.0379  0.4897  -2.2570   0.0000   0.0000   0.0000   0.3781
   5.400   1.4880   0.01300   0.00617  -0.2034  0.0377  0.5001  -2.2933   0.0000   0.0000   0.0000   0.3770
   5.500   1.4981   0.01308   0.00626  -0.2032  0.0374  0.5098  -2.3297   0.0000   0.0000   0.0000   0.3758
   5.600   1.5080   0.01317   0.00636  -0.2030  0.0371  0.5146  -2.3661   0.0000   0.0000   0.0000   0.3746
   5.700   1.5179   0.01325   0.00645  -0.2028  0.0367  0.5190  -2.4027   0.0000   0.0000   0.0000   0.3734
   5.800   1.5277   0.01335   0.00655  -0.2026  0.0361  0.5230  -2.4394   0.0000   0.0000   0.0000   0.3723
   5.900   1.5372   0.01346   0.00665  -0.2023  0.0352  0.5270  -2.4764   0.0000   0.0000   0.0000   0.3711
   6.000   1.5408   0.01398   0.00707  -0.2010  0.0171  0.5300  -2.4895   0.0000   0.0000   0.0000   0.3698
   6.100   1.5500   0.01410   0.00718  -0.2007  0.0164  0.5316  -2.5241   0.0000   0.0000   0.0000   0.3686
   6.200   1.5540   0.01458   0.00762  -0.1993  0.0045  0.5326  -2.5584   0.0000   0.0000   0.0000   0.3673
   6.300   1.5630   0.01470   0.00775  -0.1990  0.0043  0.5364  -2.5945   0.0000   0.0000   0.0000   0.3662
   6.400   1.5721   0.01482   0.00788  -0.1986  0.0041  0.5437  -2.6308   0.0000   0.0000   0.0000   0.3651
   6.500   1.5812   0.01494   0.00801  -0.1983  0.0039  0.5520  -2.6674   0.0000   0.0000   0.0000   0.3640
   6.600   1.5902   0.01507   0.00814  -0.1980  0.0037  0.5592  -2.7035   0.0000   0.0000   0.0000   0.3629
   6.700   1.5989   0.01519   0.00827  -0.1976  0.0036  0.5636  -2.7390   0.0000   0.0000   0.0000   0.3618
   6.800   1.6076   0.01532   0.00840  -0.1972  0.0034  0.5672  -2.7744   0.0000   0.0000   0.0000   0.3607
   6.900   1.6164   0.01544   0.00853  -0.1968  0.0032  0.5743  -2.8099   0.0000   0.0000   0.0000   0.3596
   7.000   1.6248   0.01556   0.00867  -0.1963  0.0031  0.5799  -2.8449   0.0000   0.0000   0.0000   0.3585
   7.100   1.6325   0.01569   0.00880  -0.1957  0.0029  0.5851  -2.8788   0.0000   0.0000   0.0000   0.3574
   7.200   1.6396   0.01581   0.00894  -0.1950  0.0027  0.5904  -2.9116   0.0000   0.0000   0.0000   0.3563
   7.300   1.6468   0.01595   0.00908  -0.1943  0.0025  0.5951  -2.9447   0.0000   0.0000   0.0000   0.3552
   7.600   1.6691   0.01635   0.00953  -0.1923  0.0020  0.6212  -3.0463   0.0000   0.0000   0.0000   0.3519
   7.700   1.6763   0.01650   0.00969  -0.1917  0.0018  0.6267  -3.0802   0.0000   0.0000   0.0000   0.3508
   7.800   1.6834   0.01665   0.00984  -0.1910  0.0016  0.6301  -3.1141   0.0000   0.0000   0.0000   0.3498
   7.900   1.6908   0.01680   0.01000  -0.1903  0.0014  0.6400  -3.1486   0.0000   0.0000   0.0000   0.3487
   8.000   1.6980   0.01696   0.01018  -0.1897  0.0014  0.6477  -3.1830   0.0000   0.0000   0.0000   0.3477
   8.100   1.7050   0.01712   0.01036  -0.1890  0.0014  0.6538  -3.2170   0.0000   0.0000   0.0000   0.3467
   8.200   1.7118   0.01729   0.01054  -0.1883  0.0013  0.6585  -3.2509   0.0000   0.0000   0.0000   0.3456
   8.300   1.7186   0.01747   0.01073  -0.1875  0.0014  0.6608  -3.2849   0.0000   0.0000   0.0000   0.3446
   8.400   1.7255   0.01764   0.01093  -0.1869  0.0013  0.6710  -3.3193   0.0000   0.0000   0.0000   0.3436
   8.500   1.7323   0.01783   0.01114  -0.1862  0.0013  0.6783  -3.3535   0.0000   0.0000   0.0000   0.3426
   8.600   1.7390   0.01802   0.01134  -0.1854  0.0013  0.6836  -3.3876   0.0000   0.0000   0.0000   0.3416
   8.700   1.7457   0.01821   0.01154  -0.1847  0.0013  0.6874  -3.4216   0.0000   0.0000   0.0000   0.3406
   8.800   1.7522   0.01841   0.01175  -0.1840  0.0013  0.6901  -3.4553   0.0000   0.0000   0.0000   0.3396
   8.900   1.7585   0.01862   0.01197  -0.1832  0.0013  0.6936  -3.4889   0.0000   0.0000   0.0000   0.3386
   9.000   1.7650   0.01884   0.01220  -0.1825  0.0013  0.7001  -3.5228   0.0000   0.0000   0.0000   0.3376
   9.100   1.7714   0.01905   0.01243  -0.1818  0.0013  0.7057  -3.5567   0.0000   0.0000   0.0000   0.3367
   9.200   1.7777   0.01928   0.01267  -0.1811  0.0013  0.7108  -3.5903   0.0000   0.0000   0.0000   0.3357
   9.300   1.7835   0.01952   0.01293  -0.1803  0.0013  0.7156  -3.6233   0.0000   0.0000   0.0000   0.3347
   9.400   1.7893   0.01976   0.01319  -0.1795  0.0013  0.7199  -3.6632   0.0000   0.0000   0.0000   0.3338
   9.500   1.7953   0.02001   0.01346  -0.1787  0.0013  0.7273  -3.7071   0.0000   0.0000   0.0000   0.3328
   9.600   1.8015   0.02027   0.01373  -0.1780  0.0013  0.7361  -3.7514   0.0000   0.0000   0.0000   0.3319
   9.700   1.8073   0.02054   0.01403  -0.1773  0.0013  0.7438  -3.7946   0.0000   0.0000   0.0000   0.3310
   9.800   1.8128   0.02082   0.01433  -0.1765  0.0013  0.7495  -3.8372   0.0000   0.0000   0.0000   0.3301
   9.900   1.8187   0.02110   0.01464  -0.1758  0.0013  0.7593  -3.8807   0.0000   0.0000   0.0000   0.3292
  10.000   1.8246   0.02139   0.01496  -0.1751  0.0013  0.7687  -3.9243   0.0000   0.0000   0.0000   0.3283
  10.100   1.8300   0.02171   0.01530  -0.1743  0.0013  0.7769  -3.9666   0.0000   0.0000   0.0000   0.3274
  10.200   1.8354   0.02203   0.01566  -0.1736  0.0013  0.7891  -4.0091   0.0000   0.0000   0.0000   0.3265
  10.300   1.8408   0.02236   0.01602  -0.1728  0.0013  0.8005  -4.0513   0.0000   0.0000   0.0000   0.3256
  10.400   1.8464   0.02269   0.01639  -0.1721  0.0013  0.8122  -4.0939   0.0000   0.0000   0.0000   0.3248
  10.500   1.8517   0.02305   0.01679  -0.1714  0.0013  0.8255  -4.1354   0.0000   0.0000   0.0000   0.3239
  10.600   1.8566   0.02343   0.01723  -0.1707  0.0013  0.8412  -4.1752   0.0000   0.0000   0.0000   0.3231
  10.700   1.8619   0.02381   0.01767  -0.1700  0.0013  0.8622  -4.2160   0.0000   0.0000   0.0000   0.3222
  10.800   1.8677   0.02416   0.01814  -0.1694  0.0013  0.9154  -4.2572   0.0000   0.0000   0.0000   0.3214


