xflr5 v6.59

 Calculated polar for: WORTMANN FX 63-137 AIRFOIL

 1 1 Reynolds number fixed          Mach number fixed         

 xtrf =   1.000 (top)        1.000 (bottom)
 Mach =   0.000     Re =     4.000 e 6     Ncrit =   9.000

  alpha     CL        CD       CDp       Cm    Top Xtr Bot Xtr   Cpmin    Chinge    XCp    
 ------- -------- --------- --------- -------- ------- ------- -------- --------- ---------
   0.000   0.9063   0.00960   0.00254  -0.2056  0.1236  0.0187  -1.1362   0.0000   0.0000   0.0000   0.4750
   0.100   0.9177   0.00962   0.00256  -0.2056  0.1234  0.0186  -1.1466   0.0000   0.0000   0.0000   0.4720
   0.200   0.9291   0.00965   0.00259  -0.2056  0.1231  0.0185  -1.1570   0.0000   0.0000   0.0000   0.4692
   0.300   0.9404   0.00967   0.00261  -0.2057  0.1227  0.0182  -1.1674   0.0000   0.0000   0.0000   0.4664
   0.400   0.9518   0.00970   0.00264  -0.2057  0.1223  0.0180  -1.1778   0.0000   0.0000   0.0000   0.4637
   0.500   0.9631   0.00973   0.00267  -0.2057  0.1219  0.0179  -1.1883   0.0000   0.0000   0.0000   0.4610
   0.600   0.9744   0.00976   0.00270  -0.2058  0.1213  0.0177  -1.1987   0.0000   0.0000   0.0000   0.4585
   0.700   0.9857   0.00979   0.00274  -0.2058  0.1205  0.0176  -1.2106   0.0000   0.0000   0.0000   0.4559
   0.800   0.9969   0.00983   0.00277  -0.2058  0.1196  0.0175  -1.2230   0.0000   0.0000   0.0000   0.4534
   1.000   1.0176   0.01004   0.00293  -0.2055  0.1029  0.0177  -1.2470   0.0000   0.0000   0.0000   0.4487
   1.100   1.0287   0.01009   0.00297  -0.2055  0.1018  0.0180  -1.2594   0.0000   0.0000   0.0000   0.4463
   1.200   1.0396   0.01014   0.00301  -0.2055  0.1007  0.0218  -1.2716   0.0000   0.0000   0.0000   0.4440
   1.300   1.0505   0.01020   0.00306  -0.2054  0.0996  0.0250  -1.2846   0.0000   0.0000   0.0000   0.4418
   1.400   1.0616   0.01024   0.00312  -0.2054  0.0985  0.0266  -1.2998   0.0000   0.0000   0.0000   0.4396
   1.500   1.0729   0.01028   0.00316  -0.2054  0.0973  0.0347  -1.3150   0.0000   0.0000   0.0000   0.4375
   1.600   1.0839   0.01033   0.00320  -0.2054  0.0962  0.0359  -1.3300   0.0000   0.0000   0.0000   0.4354
   1.700   1.0949   0.01038   0.00324  -0.2054  0.0949  0.0367  -1.3450   0.0000   0.0000   0.0000   0.4333
   1.800   1.1059   0.01042   0.00328  -0.2054  0.0937  0.0372  -1.3600   0.0000   0.0000   0.0000   0.4313
   1.900   1.1170   0.01046   0.00332  -0.2054  0.0923  0.0377  -1.3751   0.0000   0.0000   0.0000   0.4293
   2.000   1.1280   0.01051   0.00336  -0.2054  0.0908  0.0380  -1.3902   0.0000   0.0000   0.0000   0.4274
   2.100   1.1390   0.01055   0.00340  -0.2053  0.0893  0.0384  -1.4053   0.0000   0.0000   0.0000   0.4255
   2.200   1.1500   0.01060   0.00344  -0.2053  0.0879  0.0402  -1.4205   0.0000   0.0000   0.0000   0.4236
   2.300   1.1611   0.01064   0.00349  -0.2053  0.0869  0.0471  -1.4356   0.0000   0.0000   0.0000   0.4217
   2.400   1.1719   0.01069   0.00355  -0.2053  0.0842  0.0492  -1.4507   0.0000   0.0000   0.0000   0.4199
   2.500   1.1828   0.01074   0.00362  -0.2052  0.0830  0.0514  -1.4656   0.0000   0.0000   0.0000   0.4181
   2.600   1.1938   0.01080   0.00368  -0.2053  0.0805  0.0648  -1.4816   0.0000   0.0000   0.0000   0.4164
   2.700   1.2022   0.01105   0.00386  -0.2048  0.0641  0.0673  -1.5054   0.0000   0.0000   0.0000   0.4146
   2.800   1.2125   0.01115   0.00394  -0.2046  0.0608  0.0780  -1.5245   0.0000   0.0000   0.0000   0.4129
   2.900   1.2233   0.01121   0.00400  -0.2046  0.0582  0.0830  -1.5431   0.0000   0.0000   0.0000   0.4113
   3.000   1.2344   0.01126   0.00406  -0.2046  0.0555  0.1000  -1.5620   0.0000   0.0000   0.0000   0.4097
   3.100   1.2451   0.01132   0.00412  -0.2046  0.0534  0.1016  -1.5828   0.0000   0.0000   0.0000   0.4080
   3.200   1.2559   0.01137   0.00418  -0.2045  0.0518  0.1031  -1.6050   0.0000   0.0000   0.0000   0.4064
   3.300   1.2666   0.01143   0.00423  -0.2044  0.0515  0.1070  -1.6280   0.0000   0.0000   0.0000   0.4049
   3.400   1.2773   0.01148   0.00429  -0.2044  0.0512  0.1138  -1.6512   0.0000   0.0000   0.0000   0.4033
   3.500   1.2882   0.01154   0.00435  -0.2043  0.0508  0.1199  -1.6747   0.0000   0.0000   0.0000   0.4018
   3.700   1.3101   0.01163   0.00448  -0.2043  0.0498  0.1444  -1.7224   0.0000   0.0000   0.0000   0.3989
   3.800   1.3206   0.01170   0.00455  -0.2042  0.0491  0.1463  -1.7463   0.0000   0.0000   0.0000   0.3974
   3.900   1.3315   0.01173   0.00459  -0.2042  0.0508  0.1462  -1.7704   0.0000   0.0000   0.0000   0.3960
   4.000   1.3422   0.01178   0.00466  -0.2042  0.0507  0.1551  -1.8043   0.0000   0.0000   0.0000   0.3945
   4.100   1.3531   0.01183   0.00472  -0.2042  0.0503  0.1667  -1.8388   0.0000   0.0000   0.0000   0.3932
   4.200   1.3644   0.01187   0.00480  -0.2043  0.0498  0.1931  -1.8741   0.0000   0.0000   0.0000   0.3918
   4.300   1.3747   0.01195   0.00487  -0.2041  0.0487  0.1967  -1.9084   0.0000   0.0000   0.0000   0.3905
   4.400   1.3851   0.01203   0.00498  -0.2040  0.0466  0.2125  -1.9431   0.0000   0.0000   0.0000   0.3891
   4.500   1.3960   0.01211   0.00509  -0.2041  0.0440  0.2473  -1.9787   0.0000   0.0000   0.0000   0.3879
   4.600   1.4059   0.01222   0.00519  -0.2039  0.0414  0.2512  -2.0126   0.0000   0.0000   0.0000   0.3866
   4.700   1.4167   0.01228   0.00528  -0.2039  0.0391  0.2728  -2.0480   0.0000   0.0000   0.0000   0.3853
   4.800   1.4281   0.01231   0.00536  -0.2041  0.0382  0.3059  -2.0847   0.0000   0.0000   0.0000   0.3841
   4.900   1.4387   0.01237   0.00544  -0.2040  0.0380  0.3204  -2.1206   0.0000   0.0000   0.0000   0.3829
   5.000   1.4505   0.01240   0.00553  -0.2043  0.0378  0.3594  -2.1585   0.0000   0.0000   0.0000   0.3817
   5.100   1.4609   0.01246   0.00561  -0.2042  0.0375  0.3699  -2.1946   0.0000   0.0000   0.0000   0.3805
   5.200   1.4716   0.01252   0.00570  -0.2042  0.0373  0.3881  -2.2314   0.0000   0.0000   0.0000   0.3793
   5.300   1.4832   0.01255   0.00580  -0.2044  0.0369  0.4300  -2.2699   0.0000   0.0000   0.0000   0.3782
   5.400   1.4944   0.01260   0.00591  -0.2045  0.0365  0.4640  -2.3081   0.0000   0.0000   0.0000   0.3771
   5.500   1.5051   0.01267   0.00601  -0.2045  0.0359  0.4919  -2.3461   0.0000   0.0000   0.0000   0.3760
   5.600   1.5150   0.01276   0.00610  -0.2043  0.0352  0.4957  -2.3827   0.0000   0.0000   0.0000   0.3748
   5.700   1.5218   0.01308   0.00635  -0.2035  0.0251  0.4975  -2.4181   0.0000   0.0000   0.0000   0.3736
   5.800   1.5302   0.01326   0.00651  -0.2031  0.0219  0.4991  -2.4424   0.0000   0.0000   0.0000   0.3724
   5.900   1.5390   0.01343   0.00668  -0.2027  0.0166  0.5054  -2.4679   0.0000   0.0000   0.0000   0.3712
   6.000   1.5437   0.01389   0.00710  -0.2015  0.0043  0.5100  -2.5046   0.0000   0.0000   0.0000   0.3698
   6.100   1.5530   0.01401   0.00722  -0.2012  0.0040  0.5149  -2.5414   0.0000   0.0000   0.0000   0.3687
   6.200   1.5623   0.01413   0.00734  -0.2009  0.0038  0.5192  -2.5776   0.0000   0.0000   0.0000   0.3676
   6.300   1.5716   0.01424   0.00746  -0.2006  0.0036  0.5231  -2.6135   0.0000   0.0000   0.0000   0.3665
   6.400   1.5808   0.01436   0.00758  -0.2002  0.0034  0.5262  -2.6495   0.0000   0.0000   0.0000   0.3654
   6.500   1.5899   0.01447   0.00770  -0.1999  0.0032  0.5289  -2.6855   0.0000   0.0000   0.0000   0.3642
   6.600   1.5990   0.01459   0.00781  -0.1996  0.0031  0.5320  -2.7214   0.0000   0.0000   0.0000   0.3632
   6.700   1.6082   0.01470   0.00793  -0.1992  0.0029  0.5409  -2.7576   0.0000   0.0000   0.0000   0.3621
   6.800   1.6175   0.01481   0.00806  -0.1990  0.0027  0.5518  -2.7941   0.0000   0.0000   0.0000   0.3610
   6.900   1.6266   0.01492   0.00819  -0.1986  0.0025  0.5585  -2.8302   0.0000   0.0000   0.0000   0.3600
   7.000   1.6353   0.01504   0.00831  -0.1982  0.0024  0.5615  -2.8660   0.0000   0.0000   0.0000   0.3589
   7.100   1.6440   0.01517   0.00844  -0.1978  0.0022  0.5630  -2.9018   0.0000   0.0000   0.0000   0.3578
   7.200   1.6525   0.01529   0.00856  -0.1974  0.0021  0.5643  -2.9376   0.0000   0.0000   0.0000   0.3568
   7.300   1.6605   0.01542   0.00869  -0.1968  0.0019  0.5653  -2.9727   0.0000   0.0000   0.0000   0.3557
   7.400   1.6677   0.01555   0.00882  -0.1961  0.0018  0.5704  -3.0064   0.0000   0.0000   0.0000   0.3546
   7.500   1.6748   0.01567   0.00896  -0.1954  0.0017  0.5772  -3.0400   0.0000   0.0000   0.0000   0.3535
   7.600   1.6822   0.01580   0.00910  -0.1947  0.0015  0.5837  -3.0742   0.0000   0.0000   0.0000   0.3524
   7.700   1.6895   0.01593   0.00924  -0.1940  0.0014  0.5900  -3.1084   0.0000   0.0000   0.0000   0.3513
   7.800   1.6966   0.01607   0.00939  -0.1933  0.0014  0.5953  -3.1424   0.0000   0.0000   0.0000   0.3503
   7.900   1.7038   0.01622   0.00954  -0.1926  0.0014  0.6027  -3.1766   0.0000   0.0000   0.0000   0.3492
   8.000   1.7113   0.01636   0.00971  -0.1920  0.0013  0.6147  -3.2116   0.0000   0.0000   0.0000   0.3482
   8.100   1.7186   0.01651   0.00987  -0.1914  0.0013  0.6228  -3.2463   0.0000   0.0000   0.0000   0.3472
   8.200   1.7255   0.01666   0.01005  -0.1907  0.0013  0.6250  -3.2805   0.0000   0.0000   0.0000   0.3461
   8.300   1.7323   0.01682   0.01021  -0.1899  0.0013  0.6289  -3.3145   0.0000   0.0000   0.0000   0.3451
   8.400   1.7393   0.01699   0.01039  -0.1892  0.0013  0.6382  -3.3489   0.0000   0.0000   0.0000   0.3441
   8.500   1.7464   0.01715   0.01058  -0.1886  0.0013  0.6477  -3.3838   0.0000   0.0000   0.0000   0.3431
   8.600   1.7533   0.01732   0.01077  -0.1879  0.0013  0.6549  -3.4183   0.0000   0.0000   0.0000   0.3421
   8.700   1.7599   0.01750   0.01096  -0.1871  0.0013  0.6601  -3.4524   0.0000   0.0000   0.0000   0.3411
   8.800   1.7668   0.01769   0.01116  -0.1865  0.0013  0.6704  -3.4870   0.0000   0.0000   0.0000   0.3401
   8.900   1.7736   0.01787   0.01137  -0.1858  0.0013  0.6785  -3.5218   0.0000   0.0000   0.0000   0.3391
   9.000   1.7804   0.01807   0.01157  -0.1851  0.0013  0.6839  -3.5564   0.0000   0.0000   0.0000   0.3382
   9.100   1.7867   0.01827   0.01178  -0.1843  0.0013  0.6876  -3.5904   0.0000   0.0000   0.0000   0.3372
   9.200   1.7929   0.01848   0.01200  -0.1836  0.0013  0.6902  -3.6241   0.0000   0.0000   0.0000   0.3362
   9.300   1.7991   0.01870   0.01223  -0.1828  0.0013  0.6935  -3.6658   0.0000   0.0000   0.0000   0.3352
   9.400   1.8054   0.01892   0.01246  -0.1821  0.0013  0.7001  -3.7109   0.0000   0.0000   0.0000   0.3343
   9.500   1.8115   0.01915   0.01271  -0.1813  0.0013  0.7058  -3.7557   0.0000   0.0000   0.0000   0.3334
   9.600   1.8172   0.01940   0.01298  -0.1805  0.0013  0.7109  -3.7997   0.0000   0.0000   0.0000   0.3324
   9.700   1.8229   0.01965   0.01324  -0.1797  0.0012  0.7155  -3.8437   0.0000   0.0000   0.0000   0.3315
   9.800   1.8287   0.01991   0.01352  -0.1789  0.0012  0.7198  -3.8880   0.0000   0.0000   0.0000   0.3305
   9.900   1.8346   0.02017   0.01380  -0.1781  0.0012  0.7274  -3.9326   0.0000   0.0000   0.0000   0.3296
  10.000   1.8403   0.02045   0.01411  -0.1774  0.0012  0.7366  -3.9766   0.0000   0.0000   0.0000   0.3287
  10.100   1.8457   0.02074   0.01442  -0.1766  0.0012  0.7443  -4.0200   0.0000   0.0000   0.0000   0.3278
  10.200   1.8512   0.02104   0.01474  -0.1758  0.0012  0.7497  -4.0635   0.0000   0.0000   0.0000   0.3269
  10.300   1.8570   0.02134   0.01507  -0.1751  0.0012  0.7600  -4.1077   0.0000   0.0000   0.0000   0.3260
  10.400   1.8623   0.02166   0.01542  -0.1743  0.0012  0.7694  -4.1506   0.0000   0.0000   0.0000   0.3251
  10.500   1.8672   0.02200   0.01579  -0.1735  0.0012  0.7775  -4.1918   0.0000   0.0000   0.0000   0.3243
  10.600   1.8728   0.02233   0.01617  -0.1728  0.0012  0.7907  -4.2515   0.0000   0.0000   0.0000   0.3234
  10.700   1.8781   0.02268   0.01655  -0.1721  0.0012  0.8018  -4.3226   0.0000   0.0000   0.0000   0.3226
  10.800   1.8830   0.02306   0.01697  -0.1713  0.0012  0.8143  -4.3909   0.0000   0.0000   0.0000   0.3217
  10.900   1.8877   0.02345   0.01740  -0.1705  0.0012  0.8275  -4.4571   0.0000   0.0000   0.0000   0.3209
  11.000   1.8928   0.02384   0.01785  -0.1698  0.0012  0.8447  -4.5225   0.0000   0.0000   0.0000   0.3201
  11.100   1.8978   0.02426   0.01834  -0.1691  0.0012  0.8692  -4.5836   0.0000   0.0000   0.0000   0.3192


