xflr5 v6.59

 Calculated polar for: WORTMANN FX 63-137 AIRFOIL

 1 1 Reynolds number fixed          Mach number fixed         

 xtrf =   1.000 (top)        1.000 (bottom)
 Mach =   0.000     Re =     1.500 e 6     Ncrit =   9.000

  alpha     CL        CD       CDp       Cm    Top Xtr Bot Xtr   Cpmin    Chinge    XCp    
 ------- -------- --------- --------- -------- ------- ------- -------- --------- ---------
   0.000   0.8936   0.01008   0.00242  -0.2023  0.2776  0.0204  -1.1198   0.0000   0.0000   0.0000   0.4745
   0.100   0.9048   0.01012   0.00245  -0.2023  0.2736  0.0204  -1.1311   0.0000   0.0000   0.0000   0.4716
   0.200   0.9143   0.01030   0.00256  -0.2020  0.2543  0.0204  -1.1460   0.0000   0.0000   0.0000   0.4688
   0.300   0.9244   0.01043   0.00263  -0.2019  0.2445  0.0204  -1.1561   0.0000   0.0000   0.0000   0.4661
   0.400   0.9352   0.01051   0.00267  -0.2018  0.2399  0.0205  -1.1629   0.0000   0.0000   0.0000   0.4633
   0.500   0.9458   0.01059   0.00273  -0.2017  0.2353  0.0206  -1.1679   0.0000   0.0000   0.0000   0.4607
   0.600   0.9565   0.01066   0.00278  -0.2016  0.2301  0.0207  -1.1758   0.0000   0.0000   0.0000   0.4581
   0.700   0.9674   0.01072   0.00282  -0.2016  0.2247  0.0210  -1.1877   0.0000   0.0000   0.0000   0.4555
   0.800   0.9785   0.01077   0.00285  -0.2016  0.2218  0.0215  -1.1998   0.0000   0.0000   0.0000   0.4530
   0.900   0.9893   0.01082   0.00287  -0.2015  0.2207  0.0255  -1.2122   0.0000   0.0000   0.0000   0.4505
   1.000   1.0014   0.01081   0.00298  -0.2017  0.2196  0.0375  -1.2252   0.0000   0.0000   0.0000   0.4481
   1.100   1.0125   0.01084   0.00301  -0.2017  0.2178  0.0382  -1.2380   0.0000   0.0000   0.0000   0.4458
   1.200   1.0236   0.01089   0.00306  -0.2017  0.2150  0.0394  -1.2511   0.0000   0.0000   0.0000   0.4435
   1.300   1.0329   0.01107   0.00318  -0.2014  0.1991  0.0411  -1.2677   0.0000   0.0000   0.0000   0.4413
   1.400   1.0431   0.01118   0.00325  -0.2013  0.1926  0.0432  -1.2800   0.0000   0.0000   0.0000   0.4391
   1.500   1.0537   0.01126   0.00331  -0.2012  0.1890  0.0459  -1.2902   0.0000   0.0000   0.0000   0.4369
   1.600   1.0642   0.01135   0.00337  -0.2011  0.1855  0.0482  -1.3011   0.0000   0.0000   0.0000   0.4348
   1.700   1.0747   0.01143   0.00345  -0.2010  0.1819  0.0503  -1.3154   0.0000   0.0000   0.0000   0.4327
   1.800   1.0857   0.01149   0.00352  -0.2010  0.1777  0.0624  -1.3300   0.0000   0.0000   0.0000   0.4307
   1.900   1.0964   0.01156   0.00357  -0.2009  0.1734  0.0647  -1.3444   0.0000   0.0000   0.0000   0.4287
   2.000   1.1073   0.01161   0.00363  -0.2009  0.1703  0.0668  -1.3589   0.0000   0.0000   0.0000   0.4267
   2.100   1.1183   0.01165   0.00367  -0.2009  0.1695  0.0715  -1.3740   0.0000   0.0000   0.0000   0.4248
   2.200   1.1294   0.01169   0.00372  -0.2009  0.1686  0.0791  -1.3893   0.0000   0.0000   0.0000   0.4229
   2.300   1.1412   0.01169   0.00378  -0.2011  0.1673  0.1108  -1.4052   0.0000   0.0000   0.0000   0.4211
   2.400   1.1596   0.01141   0.00388  -0.2031  0.1649  0.3034  -1.4265   0.0000   0.0000   0.0000   0.4199
   2.500   1.1708   0.01146   0.00395  -0.2032  0.1604  0.3232  -1.4435   0.0000   0.0000   0.0000   0.4181
   2.700   1.1912   0.01173   0.00422  -0.2031  0.1419  0.3713  -1.4760   0.0000   0.0000   0.0000   0.4148
   2.800   1.2021   0.01180   0.00430  -0.2031  0.1390  0.3899  -1.4916   0.0000   0.0000   0.0000   0.4131
   2.900   1.2127   0.01188   0.00440  -0.2030  0.1360  0.4043  -1.5108   0.0000   0.0000   0.0000   0.4115
   3.000   1.2236   0.01195   0.00449  -0.2031  0.1327  0.4237  -1.5326   0.0000   0.0000   0.0000   0.4098
   3.100   1.2341   0.01203   0.00457  -0.2030  0.1292  0.4330  -1.5541   0.0000   0.0000   0.0000   0.4082
   3.200   1.2448   0.01210   0.00465  -0.2029  0.1259  0.4429  -1.5759   0.0000   0.0000   0.0000   0.4066
   3.300   1.2557   0.01215   0.00473  -0.2029  0.1238  0.4544  -1.5979   0.0000   0.0000   0.0000   0.4051
   3.400   1.2663   0.01222   0.00481  -0.2029  0.1224  0.4628  -1.6199   0.0000   0.0000   0.0000   0.4035
   3.500   1.2766   0.01230   0.00489  -0.2027  0.1195  0.4695  -1.6417   0.0000   0.0000   0.0000   0.4020
   3.600   1.2845   0.01259   0.00512  -0.2022  0.1023  0.4788  -1.6615   0.0000   0.0000   0.0000   0.4004
   3.700   1.2937   0.01276   0.00525  -0.2019  0.0977  0.4869  -1.6825   0.0000   0.0000   0.0000   0.3989
   3.800   1.3031   0.01292   0.00537  -0.2016  0.0924  0.4927  -1.7035   0.0000   0.0000   0.0000   0.3974
   3.900   1.3128   0.01304   0.00548  -0.2013  0.0868  0.4959  -1.7306   0.0000   0.0000   0.0000   0.3959
   4.000   1.3244   0.01301   0.00550  -0.2014  0.0950  0.4974  -1.7656   0.0000   0.0000   0.0000   0.3945
   4.100   1.3340   0.01313   0.00561  -0.2012  0.0912  0.5004  -1.7974   0.0000   0.0000   0.0000   0.3931
   4.200   1.3439   0.01324   0.00572  -0.2010  0.0869  0.5072  -1.8298   0.0000   0.0000   0.0000   0.3917
   4.300   1.3541   0.01333   0.00582  -0.2008  0.0842  0.5138  -1.8629   0.0000   0.0000   0.0000   0.3903
   4.400   1.3643   0.01341   0.00592  -0.2007  0.0835  0.5206  -1.8964   0.0000   0.0000   0.0000   0.3889
   4.500   1.3744   0.01350   0.00602  -0.2005  0.0823  0.5281  -1.9298   0.0000   0.0000   0.0000   0.3876
   4.600   1.3842   0.01360   0.00613  -0.2003  0.0804  0.5344  -1.9630   0.0000   0.0000   0.0000   0.3862
   4.700   1.3940   0.01371   0.00626  -0.2001  0.0760  0.5471  -1.9963   0.0000   0.0000   0.0000   0.3849
   4.800   1.4018   0.01396   0.00647  -0.1996  0.0659  0.5565  -2.0265   0.0000   0.0000   0.0000   0.3836
   4.900   1.4111   0.01410   0.00659  -0.1992  0.0641  0.5632  -2.0590   0.0000   0.0000   0.0000   0.3823
   5.000   1.4203   0.01423   0.00671  -0.1989  0.0624  0.5691  -2.0916   0.0000   0.0000   0.0000   0.3810
   5.100   1.4297   0.01436   0.00684  -0.1986  0.0606  0.5765  -2.1246   0.0000   0.0000   0.0000   0.3797
   5.200   1.4391   0.01448   0.00696  -0.1983  0.0585  0.5820  -2.1576   0.0000   0.0000   0.0000   0.3784
   5.300   1.4484   0.01460   0.00708  -0.1980  0.0563  0.5874  -2.1906   0.0000   0.0000   0.0000   0.3772
   5.400   1.4577   0.01472   0.00720  -0.1977  0.0543  0.5927  -2.2237   0.0000   0.0000   0.0000   0.3760
   5.500   1.4669   0.01483   0.00732  -0.1974  0.0526  0.5970  -2.2566   0.0000   0.0000   0.0000   0.3747
   5.600   1.4764   0.01494   0.00744  -0.1972  0.0516  0.6053  -2.2911   0.0000   0.0000   0.0000   0.3735
   5.700   1.4860   0.01504   0.00757  -0.1969  0.0514  0.6138  -2.3268   0.0000   0.0000   0.0000   0.3723
   5.800   1.4952   0.01515   0.00770  -0.1966  0.0510  0.6210  -2.3621   0.0000   0.0000   0.0000   0.3712
   5.900   1.5042   0.01527   0.00783  -0.1962  0.0504  0.6264  -2.3970   0.0000   0.0000   0.0000   0.3700
   6.000   1.5131   0.01539   0.00796  -0.1958  0.0497  0.6307  -2.4317   0.0000   0.0000   0.0000   0.3688
   6.100   1.5212   0.01558   0.00819  -0.1954  0.0468  0.6410  -2.4671   0.0000   0.0000   0.0000   0.3676
   6.200   1.5291   0.01576   0.00837  -0.1948  0.0446  0.6461  -2.5011   0.0000   0.0000   0.0000   0.3664
   6.300   1.5366   0.01593   0.00854  -0.1942  0.0427  0.6506  -2.5341   0.0000   0.0000   0.0000   0.3652
   6.400   1.5438   0.01609   0.00869  -0.1935  0.0410  0.6546  -2.5664   0.0000   0.0000   0.0000   0.3640
   6.500   1.5510   0.01623   0.00884  -0.1928  0.0394  0.6581  -2.5986   0.0000   0.0000   0.0000   0.3628
   6.700   1.5665   0.01650   0.00912  -0.1916  0.0380  0.6671  -2.6657   0.0000   0.0000   0.0000   0.3605
   6.800   1.5743   0.01663   0.00927  -0.1910  0.0376  0.6725  -2.7001   0.0000   0.0000   0.0000   0.3594
   6.900   1.5820   0.01677   0.00942  -0.1904  0.0373  0.6773  -2.7344   0.0000   0.0000   0.0000   0.3583
   7.000   1.5896   0.01691   0.00957  -0.1898  0.0368  0.6817  -2.7688   0.0000   0.0000   0.0000   0.3571
   7.100   1.5970   0.01706   0.00972  -0.1892  0.0363  0.6857  -2.8033   0.0000   0.0000   0.0000   0.3560
   7.200   1.6042   0.01722   0.00989  -0.1885  0.0356  0.6891  -2.8377   0.0000   0.0000   0.0000   0.3549
   7.400   1.6162   0.01769   0.01033  -0.1868  0.0303  0.6981  -2.9079   0.0000   0.0000   0.0000   0.3526
   7.500   1.6191   0.01809   0.01069  -0.1854  0.0246  0.7033  -2.9392   0.0000   0.0000   0.0000   0.3514
   7.600   1.6236   0.01840   0.01099  -0.1844  0.0217  0.7083  -2.9583   0.0000   0.0000   0.0000   0.3503
   7.700   1.6288   0.01869   0.01126  -0.1834  0.0185  0.7132  -2.9767   0.0000   0.0000   0.0000   0.3492
   7.800   1.6355   0.01890   0.01148  -0.1827  0.0167  0.7180  -3.0058   0.0000   0.0000   0.0000   0.3481
   8.100   1.6451   0.02015   0.01275  -0.1789  0.0044  0.7371  -3.0908   0.0000   0.0000   0.0000   0.3447
   8.200   1.6507   0.02043   0.01304  -0.1781  0.0042  0.7441  -3.1231   0.0000   0.0000   0.0000   0.3436
   8.400   1.6625   0.02096   0.01360  -0.1766  0.0037  0.7589  -3.1880   0.0000   0.0000   0.0000   0.3416
   8.500   1.6691   0.02119   0.01385  -0.1760  0.0033  0.7677  -3.2196   0.0000   0.0000   0.0000   0.3406
   8.600   1.6753   0.02144   0.01412  -0.1753  0.0029  0.7760  -3.2499   0.0000   0.0000   0.0000   0.3396
   8.700   1.6816   0.02170   0.01444  -0.1746  0.0035  0.7859  -3.2852   0.0000   0.0000   0.0000   0.3386
   8.800   1.6878   0.02196   0.01473  -0.1739  0.0033  0.7967  -3.3164   0.0000   0.0000   0.0000   0.3377
   8.900   1.6942   0.02223   0.01501  -0.1733  0.0028  0.8067  -3.3471   0.0000   0.0000   0.0000   0.3367
   9.000   1.7007   0.02248   0.01530  -0.1727  0.0022  0.8190  -3.3784   0.0000   0.0000   0.0000   0.3358
   9.200   1.7123   0.02309   0.01599  -0.1713  0.0016  0.8471  -3.4410   0.0000   0.0000   0.0000   0.3339
   9.300   1.7182   0.02338   0.01634  -0.1707  0.0015  0.8689  -3.4731   0.0000   0.0000   0.0000   0.3330
   9.400   1.7181   0.02350   0.01661  -0.1688  0.0015  1.0000  -3.4932   0.0000   0.0000   0.0000   0.3317
   9.500   1.7234   0.02385   0.01698  -0.1680  0.0015  1.0000  -3.5242   0.0000   0.0000   0.0000   0.3308
   9.600   1.7287   0.02421   0.01735  -0.1673  0.0014  1.0000  -3.5552   0.0000   0.0000   0.0000   0.3299
   9.700   1.7341   0.02456   0.01772  -0.1666  0.0014  1.0000  -3.5864   0.0000   0.0000   0.0000   0.3290
   9.800   1.7393   0.02493   0.01811  -0.1659  0.0014  1.0000  -3.6173   0.0000   0.0000   0.0000   0.3282
   9.900   1.7442   0.02533   0.01852  -0.1652  0.0014  1.0000  -3.6505   0.0000   0.0000   0.0000   0.3273
  10.000   1.7489   0.02573   0.01895  -0.1645  0.0014  1.0000  -3.6887   0.0000   0.0000   0.0000   0.3264
  10.100   1.7537   0.02613   0.01937  -0.1638  0.0014  1.0000  -3.7271   0.0000   0.0000   0.0000   0.3255
  10.200   1.7583   0.02656   0.01982  -0.1630  0.0014  1.0000  -3.7650   0.0000   0.0000   0.0000   0.3247
  10.300   1.7625   0.02701   0.02030  -0.1623  0.0014  1.0000  -3.8022   0.0000   0.0000   0.0000   0.3238
  10.400   1.7669   0.02747   0.02078  -0.1616  0.0015  1.0000  -3.8397   0.0000   0.0000   0.0000   0.3230
  10.500   1.7713   0.02793   0.02126  -0.1609  0.0015  1.0000  -3.8775   0.0000   0.0000   0.0000   0.3222
  10.600   1.7757   0.02840   0.02176  -0.1602  0.0015  1.0000  -3.9151   0.0000   0.0000   0.0000   0.3214
  10.700   1.7796   0.02892   0.02230  -0.1594  0.0015  1.0000  -3.9515   0.0000   0.0000   0.0000   0.3206
  10.800   1.7835   0.02945   0.02286  -0.1587  0.0015  1.0000  -3.9876   0.0000   0.0000   0.0000   0.3198
  10.900   1.7875   0.02998   0.02341  -0.1581  0.0015  1.0000  -4.0242   0.0000   0.0000   0.0000   0.3190
  11.000   1.7915   0.03051   0.02397  -0.1574  0.0016  1.0000  -4.0609   0.0000   0.0000   0.0000   0.3182
  11.100   1.7949   0.03110   0.02458  -0.1567  0.0016  1.0000  -4.0960   0.0000   0.0000   0.0000   0.3174
  11.200   1.7981   0.03171   0.02524  -0.1560  0.0016  1.0000  -4.1300   0.0000   0.0000   0.0000   0.3167
  11.300   1.8016   0.03231   0.02586  -0.1553  0.0016  1.0000  -4.1654   0.0000   0.0000   0.0000   0.3159
  11.400   1.8052   0.03291   0.02648  -0.1547  0.0016  1.0000  -4.2013   0.0000   0.0000   0.0000   0.3152
  11.500   1.8085   0.03354   0.02714  -0.1540  0.0017  1.0000  -4.2362   0.0000   0.0000   0.0000   0.3145
  11.600   1.8110   0.03423   0.02786  -0.1533  0.0017  1.0000  -4.2694   0.0000   0.0000   0.0000   0.3137
  11.700   1.8138   0.03493   0.02858  -0.1526  0.0017  1.0000  -4.3030   0.0000   0.0000   0.0000   0.3130
  11.800   1.8167   0.03561   0.02929  -0.1520  0.0018  1.0000  -4.3373   0.0000   0.0000   0.0000   0.3123
  11.900   1.8195   0.03630   0.03000  -0.1513  0.0018  1.0000  -4.3994   0.0000   0.0000   0.0000   0.3116
  12.000   1.8216   0.03707   0.03081  -0.1507  0.0018  1.0000  -4.4606   0.0000   0.0000   0.0000   0.3110
  12.100   1.8235   0.03786   0.03163  -0.1500  0.0019  1.0000  -4.5220   0.0000   0.0000   0.0000   0.3103
  12.200   1.8259   0.03863   0.03242  -0.1494  0.0019  1.0000  -4.5854   0.0000   0.0000   0.0000   0.3096
  12.300   1.8283   0.03938   0.03320  -0.1488  0.0019  1.0000  -4.6498   0.0000   0.0000   0.0000   0.3090
  12.400   1.8308   0.04014   0.03399  -0.1482  0.0020  1.0000  -4.7143   0.0000   0.0000   0.0000   0.3083
  12.500   1.8322   0.04102   0.03489  -0.1476  0.0020  1.0000  -4.7741   0.0000   0.0000   0.0000   0.3077
  12.600   1.8334   0.04191   0.03582  -0.1470  0.0021  1.0000  -4.8326   0.0000   0.0000   0.0000   0.3071
  12.700   1.8348   0.04277   0.03671  -0.1464  0.0021  1.0000  -4.8926   0.0000   0.0000   0.0000   0.3065
  12.800   1.8364   0.04362   0.03759  -0.1458  0.0022  1.0000  -4.9533   0.0000   0.0000   0.0000   0.3058
  12.900   1.8378   0.04451   0.03851  -0.1452  0.0022  1.0000  -5.0131   0.0000   0.0000   0.0000   0.3052
  13.000   1.8380   0.04556   0.03959  -0.1446  0.0023  1.0000  -5.0660   0.0000   0.0000   0.0000   0.3047
  13.100   1.8385   0.04659   0.04066  -0.1441  0.0024  1.0000  -5.1203   0.0000   0.0000   0.0000   0.3041
  13.200   1.8395   0.04758   0.04167  -0.1435  0.0025  1.0000  -5.1763   0.0000   0.0000   0.0000   0.3036
  13.300   1.8407   0.04855   0.04268  -0.1430  0.0026  1.0000  -5.2315   0.0000   0.0000   0.0000   0.3030
  13.400   1.8421   0.04952   0.04368  -0.1425  0.0027  1.0000  -5.2843   0.0000   0.0000   0.0000   0.3024
  13.500   1.8435   0.05051   0.04470  -0.1421  0.0029  1.0000  -5.3298   0.0000   0.0000   0.0000   0.3019
  13.600   1.8468   0.05130   0.04549  -0.1418  0.0031  1.0000  -5.3697   0.0000   0.0000   0.0000   0.3013
  13.700   1.8527   0.05182   0.04599  -0.1415  0.0035  1.0000  -5.4177   0.0000   0.0000   0.0000   0.3007
  13.800   1.8593   0.05224   0.04641  -0.1413  0.0038  1.0000  -5.4771   0.0000   0.0000   0.0000   0.3001
  13.900   1.8677   0.05247   0.04664  -0.1411  0.0041  1.0000  -5.5488   0.0000   0.0000   0.0000   0.2994
  14.000   1.8758   0.05273   0.04691  -0.1410  0.0044  1.0000  -5.6180   0.0000   0.0000   0.0000   0.2988
  14.200   1.8840   0.05415   0.04845  -0.1403  0.0050  1.0000  -5.7261   0.0000   0.0000   0.0000   0.2976
  14.300   1.8856   0.05514   0.04948  -0.1399  0.0052  1.0000  -5.7872   0.0000   0.0000   0.0000   0.2971
  14.400   1.8857   0.05634   0.05071  -0.1396  0.0054  1.0000  -5.8406   0.0000   0.0000   0.0000   0.2966
  14.500   1.8855   0.05760   0.05201  -0.1392  0.0056  1.0000  -5.8918   0.0000   0.0000   0.0000   0.2962
  14.600   1.8861   0.05875   0.05319  -0.1389  0.0058  1.0000  -5.9475   0.0000   0.0000   0.0000   0.2958
  14.700   1.8869   0.05986   0.05435  -0.1385  0.0060  1.0000  -6.0045   0.0000   0.0000   0.0000   0.2953
  14.800   1.8878   0.06099   0.05552  -0.1382  0.0063  1.0000  -6.0610   0.0000   0.0000   0.0000   0.2949
  14.900   1.8883   0.06216   0.05674  -0.1379  0.0066  1.0000  -6.1147   0.0000   0.0000   0.0000   0.2944
  15.000   1.8871   0.06358   0.05822  -0.1376  0.0070  1.0000  -6.1582   0.0000   0.0000   0.0000   0.2941
  15.100   1.8853   0.06511   0.05982  -0.1374  0.0074  1.0000  -6.1960   0.0000   0.0000   0.0000   0.2937
  16.200   1.8811   0.08024   0.07553  -0.1355  0.0096  1.0000  -6.6453   0.0000   0.0000   0.0000   0.2900
  16.300   1.8763   0.08221   0.07756  -0.1356  0.0096  1.0000  -6.6687   0.0000   0.0000   0.0000   0.2900
  16.400   1.8724   0.08405   0.07945  -0.1355  0.0096  1.0000  -6.6974   0.0000   0.0000   0.0000   0.2898
  16.500   1.8686   0.08589   0.08134  -0.1355  0.0095  1.0000  -6.7266   0.0000   0.0000   0.0000   0.2897
  16.600   1.8628   0.08813   0.08363  -0.1357  0.0095  1.0000  -6.7435   0.0000   0.0000   0.0000   0.2898
  16.700   1.8575   0.09031   0.08587  -0.1359  0.0095  1.0000  -6.7630   0.0000   0.0000   0.0000   0.2898
  16.800   1.8534   0.09228   0.08789  -0.1361  0.0094  1.0000  -6.7899   0.0000   0.0000   0.0000   0.2898
  16.900   1.8495   0.09423   0.08988  -0.1362  0.0093  1.0000  -6.8183   0.0000   0.0000   0.0000   0.2898
  17.000   1.8455   0.09621   0.09192  -0.1364  0.0093  1.0000  -6.8458   0.0000   0.0000   0.0000   0.2898
  17.100   1.8388   0.09871   0.09448  -0.1369  0.0092  1.0000  -6.8556   0.0000   0.0000   0.0000   0.2900
  17.200   1.8333   0.10100   0.09682  -0.1373  0.0091  1.0000  -6.8727   0.0000   0.0000   0.0000   0.2902
  17.300   1.8287   0.10312   0.09899  -0.1376  0.0090  1.0000  -6.8957   0.0000   0.0000   0.0000   0.2903
  17.400   1.8241   0.10523   0.10115  -0.1380  0.0089  1.0000  -6.9191   0.0000   0.0000   0.0000   0.2904
  17.500   1.8173   0.10782   0.10379  -0.1386  0.0089  1.0000  -6.9259   0.0000   0.0000   0.0000   0.2908
  17.600   1.8114   0.11020   0.10623  -0.1392  0.0088  1.0000  -6.9394   0.0000   0.0000   0.0000   0.2911
  17.700   1.8068   0.11236   0.10843  -0.1397  0.0087  1.0000  -6.9616   0.0000   0.0000   0.0000   0.2913
  17.800   1.8023   0.11449   0.11061  -0.1402  0.0086  1.0000  -6.9845   0.0000   0.0000   0.0000   0.2915
  17.900   1.7976   0.11666   0.11283  -0.1408  0.0084  1.0000  -7.0054   0.0000   0.0000   0.0000   0.2917
  18.000   1.7904   0.11934   0.11557  -0.1416  0.0084  1.0000  -7.0073   0.0000   0.0000   0.0000   0.2923


