xflr5 v6.59

 Calculated polar for: WORTMANN FX 63-137 AIRFOIL

 1 1 Reynolds number fixed          Mach number fixed         

 xtrf =   1.000 (top)        1.000 (bottom)
 Mach =   0.000     Re =     3.400 e 6     Ncrit =   9.000

  alpha     CL        CD       CDp       Cm    Top Xtr Bot Xtr   Cpmin    Chinge    XCp    
 ------- -------- --------- --------- -------- ------- ------- -------- --------- ---------
   0.000   0.9023   0.00985   0.00261  -0.2047  0.1321  0.0189  -1.1332   0.0000   0.0000   0.0000   0.4750
   0.100   0.9136   0.00988   0.00263  -0.2047  0.1300  0.0187  -1.1436   0.0000   0.0000   0.0000   0.4721
   0.200   0.9249   0.00991   0.00266  -0.2048  0.1278  0.0185  -1.1539   0.0000   0.0000   0.0000   0.4692
   0.300   0.9362   0.00994   0.00269  -0.2048  0.1258  0.0184  -1.1643   0.0000   0.0000   0.0000   0.4665
   0.400   0.9475   0.00997   0.00272  -0.2048  0.1242  0.0182  -1.1747   0.0000   0.0000   0.0000   0.4637
   0.500   0.9589   0.01000   0.00275  -0.2048  0.1239  0.0181  -1.1851   0.0000   0.0000   0.0000   0.4611
   0.600   0.9702   0.01002   0.00278  -0.2049  0.1236  0.0180  -1.1955   0.0000   0.0000   0.0000   0.4585
   0.700   0.9815   0.01005   0.00281  -0.2049  0.1233  0.0179  -1.2067   0.0000   0.0000   0.0000   0.4559
   0.800   0.9927   0.01008   0.00284  -0.2049  0.1229  0.0179  -1.2191   0.0000   0.0000   0.0000   0.4534
   0.900   1.0040   0.01011   0.00288  -0.2049  0.1226  0.0181  -1.2314   0.0000   0.0000   0.0000   0.4510
   1.000   1.0152   0.01015   0.00291  -0.2050  0.1222  0.0183  -1.2437   0.0000   0.0000   0.0000   0.4486
   1.100   1.0264   0.01018   0.00295  -0.2050  0.1217  0.0205  -1.2561   0.0000   0.0000   0.0000   0.4463
   1.200   1.0373   0.01023   0.00298  -0.2049  0.1210  0.0248  -1.2683   0.0000   0.0000   0.0000   0.4440
   1.300   1.0487   0.01026   0.00305  -0.2050  0.1199  0.0267  -1.2809   0.0000   0.0000   0.0000   0.4417
   1.400   1.0601   0.01028   0.00309  -0.2050  0.1192  0.0349  -1.2934   0.0000   0.0000   0.0000   0.4396
   1.500   1.0694   0.01047   0.00322  -0.2047  0.1031  0.0360  -1.3093   0.0000   0.0000   0.0000   0.4374
   1.600   1.0803   0.01053   0.00326  -0.2047  0.1019  0.0368  -1.3241   0.0000   0.0000   0.0000   0.4353
   1.700   1.0912   0.01058   0.00331  -0.2046  0.1007  0.0374  -1.3391   0.0000   0.0000   0.0000   0.4333
   1.800   1.1021   0.01064   0.00336  -0.2046  0.0995  0.0378  -1.3543   0.0000   0.0000   0.0000   0.4312
   1.900   1.1129   0.01070   0.00341  -0.2045  0.0982  0.0381  -1.3695   0.0000   0.0000   0.0000   0.4292
   2.000   1.1238   0.01076   0.00345  -0.2045  0.0970  0.0384  -1.3846   0.0000   0.0000   0.0000   0.4273
   2.100   1.1346   0.01081   0.00350  -0.2044  0.0957  0.0399  -1.3997   0.0000   0.0000   0.0000   0.4254
   2.200   1.1455   0.01087   0.00354  -0.2044  0.0943  0.0422  -1.4148   0.0000   0.0000   0.0000   0.4235
   2.300   1.1565   0.01091   0.00360  -0.2044  0.0929  0.0499  -1.4300   0.0000   0.0000   0.0000   0.4216
   2.400   1.1676   0.01095   0.00366  -0.2044  0.0912  0.0576  -1.4454   0.0000   0.0000   0.0000   0.4198
   2.500   1.1784   0.01102   0.00372  -0.2044  0.0854  0.0650  -1.4611   0.0000   0.0000   0.0000   0.4180
   2.600   1.1892   0.01107   0.00378  -0.2043  0.0838  0.0684  -1.4760   0.0000   0.0000   0.0000   0.4163
   2.700   1.2002   0.01112   0.00384  -0.2043  0.0826  0.0808  -1.4934   0.0000   0.0000   0.0000   0.4146
   2.800   1.2115   0.01116   0.00390  -0.2044  0.0806  0.1010  -1.5181   0.0000   0.0000   0.0000   0.4129
   2.900   1.2201   0.01139   0.00407  -0.2040  0.0659  0.1027  -1.5427   0.0000   0.0000   0.0000   0.4112
   3.000   1.2302   0.01150   0.00416  -0.2038  0.0628  0.1055  -1.5608   0.0000   0.0000   0.0000   0.4095
   3.100   1.2406   0.01159   0.00423  -0.2037  0.0606  0.1128  -1.5796   0.0000   0.0000   0.0000   0.4079
   3.200   1.2513   0.01165   0.00430  -0.2036  0.0585  0.1194  -1.5998   0.0000   0.0000   0.0000   0.4063
   3.400   1.2732   0.01175   0.00443  -0.2036  0.0541  0.1449  -1.6436   0.0000   0.0000   0.0000   0.4032
   3.500   1.2838   0.01182   0.00449  -0.2035  0.0525  0.1504  -1.6658   0.0000   0.0000   0.0000   0.4017
   3.600   1.2947   0.01186   0.00456  -0.2035  0.0516  0.1617  -1.6888   0.0000   0.0000   0.0000   0.4002
   3.700   1.3058   0.01191   0.00463  -0.2036  0.0514  0.1768  -1.7126   0.0000   0.0000   0.0000   0.3988
   3.800   1.3168   0.01195   0.00469  -0.2036  0.0511  0.1932  -1.7365   0.0000   0.0000   0.0000   0.3973
   3.900   1.3275   0.01200   0.00475  -0.2035  0.0517  0.1931  -1.7619   0.0000   0.0000   0.0000   0.3959
   4.000   1.3381   0.01206   0.00481  -0.2034  0.0516  0.1983  -1.7956   0.0000   0.0000   0.0000   0.3945
   4.100   1.3491   0.01210   0.00488  -0.2035  0.0514  0.2151  -1.8302   0.0000   0.0000   0.0000   0.3931
   4.200   1.3607   0.01212   0.00496  -0.2037  0.0512  0.2475  -1.8658   0.0000   0.0000   0.0000   0.3918
   4.300   1.3713   0.01219   0.00503  -0.2036  0.0510  0.2563  -1.9001   0.0000   0.0000   0.0000   0.3905
   4.400   1.3825   0.01223   0.00511  -0.2037  0.0505  0.2786  -1.9357   0.0000   0.0000   0.0000   0.3892
   4.500   1.3937   0.01227   0.00520  -0.2038  0.0496  0.3073  -1.9717   0.0000   0.0000   0.0000   0.3879
   4.600   1.4043   0.01235   0.00530  -0.2038  0.0479  0.3263  -2.0072   0.0000   0.0000   0.0000   0.3866
   4.700   1.4154   0.01242   0.00543  -0.2039  0.0455  0.3651  -2.0436   0.0000   0.0000   0.0000   0.3854
   4.800   1.4251   0.01254   0.00554  -0.2036  0.0431  0.3707  -2.0778   0.0000   0.0000   0.0000   0.3841
   4.900   1.4356   0.01262   0.00565  -0.2036  0.0408  0.3900  -2.1131   0.0000   0.0000   0.0000   0.3829
   5.000   1.4460   0.01270   0.00574  -0.2035  0.0392  0.4044  -2.1485   0.0000   0.0000   0.0000   0.3817
   5.100   1.4569   0.01275   0.00584  -0.2036  0.0382  0.4281  -2.1848   0.0000   0.0000   0.0000   0.3805
   5.200   1.4675   0.01281   0.00593  -0.2035  0.0380  0.4481  -2.2214   0.0000   0.0000   0.0000   0.3793
   5.300   1.4786   0.01286   0.00603  -0.2036  0.0378  0.4794  -2.2589   0.0000   0.0000   0.0000   0.3782
   5.400   1.4891   0.01293   0.00613  -0.2036  0.0375  0.4986  -2.2959   0.0000   0.0000   0.0000   0.3770
   5.500   1.4991   0.01301   0.00622  -0.2034  0.0372  0.5049  -2.3321   0.0000   0.0000   0.0000   0.3758
   5.600   1.5091   0.01310   0.00631  -0.2032  0.0369  0.5103  -2.3686   0.0000   0.0000   0.0000   0.3746
   5.700   1.5190   0.01319   0.00641  -0.2030  0.0364  0.5152  -2.4053   0.0000   0.0000   0.0000   0.3735
   5.800   1.5288   0.01329   0.00651  -0.2028  0.0357  0.5198  -2.4422   0.0000   0.0000   0.0000   0.3723
   5.900   1.5385   0.01339   0.00661  -0.2026  0.0350  0.5251  -2.4792   0.0000   0.0000   0.0000   0.3712
   6.000   1.5420   0.01392   0.00703  -0.2012  0.0166  0.5283  -2.4912   0.0000   0.0000   0.0000   0.3698
   6.200   1.5554   0.01450   0.00758  -0.1996  0.0044  0.5315  -2.5616   0.0000   0.0000   0.0000   0.3673
   6.300   1.5643   0.01463   0.00770  -0.1992  0.0042  0.5328  -2.5977   0.0000   0.0000   0.0000   0.3662
   6.400   1.5733   0.01475   0.00783  -0.1989  0.0040  0.5386  -2.6340   0.0000   0.0000   0.0000   0.3651
   6.500   1.5825   0.01487   0.00796  -0.1986  0.0038  0.5476  -2.6704   0.0000   0.0000   0.0000   0.3640
   6.600   1.5916   0.01499   0.00809  -0.1982  0.0036  0.5560  -2.7064   0.0000   0.0000   0.0000   0.3629
   6.700   1.6005   0.01511   0.00822  -0.1979  0.0035  0.5618  -2.7421   0.0000   0.0000   0.0000   0.3618
   6.800   1.6092   0.01524   0.00835  -0.1974  0.0033  0.5648  -2.7776   0.0000   0.0000   0.0000   0.3607
   6.900   1.6179   0.01536   0.00847  -0.1970  0.0031  0.5692  -2.8130   0.0000   0.0000   0.0000   0.3596
   7.000   1.6265   0.01548   0.00861  -0.1966  0.0030  0.5750  -2.8483   0.0000   0.0000   0.0000   0.3586
   7.100   1.6345   0.01561   0.00874  -0.1961  0.0028  0.5807  -2.8827   0.0000   0.0000   0.0000   0.3575
   7.200   1.6418   0.01573   0.00888  -0.1954  0.0026  0.5861  -2.9159   0.0000   0.0000   0.0000   0.3564
   7.300   1.6490   0.01586   0.00902  -0.1947  0.0024  0.5915  -2.9490   0.0000   0.0000   0.0000   0.3552
   7.400   1.6563   0.01599   0.00916  -0.1940  0.0022  0.5961  -2.9824   0.0000   0.0000   0.0000   0.3541
   7.500   1.6636   0.01613   0.00930  -0.1933  0.0021  0.6044  -3.0163   0.0000   0.0000   0.0000   0.3531
   7.600   1.6712   0.01626   0.00946  -0.1927  0.0019  0.6153  -3.0507   0.0000   0.0000   0.0000   0.3520
   7.700   1.6784   0.01641   0.00962  -0.1920  0.0017  0.6231  -3.0848   0.0000   0.0000   0.0000   0.3509
   7.800   1.6856   0.01655   0.00977  -0.1914  0.0016  0.6278  -3.1188   0.0000   0.0000   0.0000   0.3499
   7.900   1.6928   0.01671   0.00993  -0.1907  0.0014  0.6329  -3.1530   0.0000   0.0000   0.0000   0.3488
   8.000   1.7000   0.01686   0.01010  -0.1900  0.0014  0.6425  -3.1875   0.0000   0.0000   0.0000   0.3478
   8.100   1.7071   0.01702   0.01028  -0.1893  0.0014  0.6496  -3.2217   0.0000   0.0000   0.0000   0.3467
   8.200   1.7139   0.01719   0.01046  -0.1886  0.0013  0.6552  -3.2558   0.0000   0.0000   0.0000   0.3457
   8.300   1.7208   0.01736   0.01066  -0.1879  0.0014  0.6581  -3.2899   0.0000   0.0000   0.0000   0.3447
   8.700   1.7480   0.01810   0.01145  -0.1851  0.0013  0.6853  -3.4266   0.0000   0.0000   0.0000   0.3407
   8.800   1.7546   0.01829   0.01166  -0.1844  0.0013  0.6886  -3.4606   0.0000   0.0000   0.0000   0.3397
   8.900   1.7609   0.01850   0.01187  -0.1836  0.0013  0.6909  -3.4941   0.0000   0.0000   0.0000   0.3387
   9.000   1.7673   0.01872   0.01210  -0.1829  0.0013  0.6961  -3.5278   0.0000   0.0000   0.0000   0.3377
   9.100   1.7737   0.01893   0.01233  -0.1822  0.0013  0.7024  -3.5618   0.0000   0.0000   0.0000   0.3367
   9.200   1.7801   0.01915   0.01256  -0.1815  0.0013  0.7078  -3.5957   0.0000   0.0000   0.0000   0.3358
   9.300   1.7861   0.01938   0.01281  -0.1807  0.0013  0.7127  -3.6290   0.0000   0.0000   0.0000   0.3348
   9.400   1.7919   0.01963   0.01307  -0.1799  0.0013  0.7173  -3.6709   0.0000   0.0000   0.0000   0.3339
   9.600   1.8039   0.02013   0.01361  -0.1784  0.0013  0.7309  -3.7588   0.0000   0.0000   0.0000   0.3320
   9.700   1.8099   0.02039   0.01390  -0.1777  0.0013  0.7394  -3.8028   0.0000   0.0000   0.0000   0.3311
   9.800   1.8154   0.02067   0.01420  -0.1769  0.0013  0.7463  -3.8457   0.0000   0.0000   0.0000   0.3301
   9.900   1.8210   0.02096   0.01450  -0.1761  0.0013  0.7529  -3.8885   0.0000   0.0000   0.0000   0.3292
  10.000   1.8269   0.02125   0.01482  -0.1754  0.0013  0.7631  -3.9323   0.0000   0.0000   0.0000   0.3283
  10.100   1.8326   0.02155   0.01515  -0.1747  0.0013  0.7722  -3.9754   0.0000   0.0000   0.0000   0.3275
  10.200   1.8378   0.02187   0.01551  -0.1739  0.0013  0.7813  -4.0174   0.0000   0.0000   0.0000   0.3266
  10.300   1.8433   0.02220   0.01587  -0.1732  0.0013  0.7941  -4.0600   0.0000   0.0000   0.0000   0.3257
  10.400   1.8487   0.02253   0.01624  -0.1724  0.0013  0.8042  -4.1022   0.0000   0.0000   0.0000   0.3248
  10.500   1.8542   0.02288   0.01662  -0.1718  0.0013  0.8179  -4.1447   0.0000   0.0000   0.0000   0.3240


