xflr5 v6.59

 Calculated polar for: WORTMANN FX 63-137 AIRFOIL

 1 1 Reynolds number fixed          Mach number fixed         

 xtrf =   1.000 (top)        1.000 (bottom)
 Mach =   0.000     Re =     0.600 e 6     Ncrit =   9.000

  alpha     CL        CD       CDp       Cm    Top Xtr Bot Xtr   Cpmin    Chinge    XCp    
 ------- -------- --------- --------- -------- ------- ------- -------- --------- ---------
   0.000   0.9011   0.00950   0.00213  -0.2026  0.5840  0.0413  -1.1146   0.0000   0.0000   0.0000   0.4729
   0.100   0.9122   0.00953   0.00214  -0.2026  0.5785  0.0432  -1.1246   0.0000   0.0000   0.0000   0.4700
   0.200   0.9230   0.00958   0.00216  -0.2025  0.5725  0.0460  -1.1345   0.0000   0.0000   0.0000   0.4672
   0.300   0.9337   0.00963   0.00220  -0.2024  0.5668  0.0486  -1.1442   0.0000   0.0000   0.0000   0.4644
   0.400   0.9449   0.00966   0.00224  -0.2024  0.5620  0.0514  -1.1543   0.0000   0.0000   0.0000   0.4618
   0.500   0.9561   0.00969   0.00227  -0.2024  0.5567  0.0640  -1.1644   0.0000   0.0000   0.0000   0.4591
   0.600   0.9666   0.00975   0.00230  -0.2023  0.5495  0.0679  -1.1742   0.0000   0.0000   0.0000   0.4565
   0.700   0.9768   0.00983   0.00235  -0.2022  0.5407  0.0772  -1.1850   0.0000   0.0000   0.0000   0.4541
   0.800   0.9874   0.00989   0.00241  -0.2021  0.5317  0.0994  -1.1965   0.0000   0.0000   0.0000   0.4516
   0.900   1.0008   0.00980   0.00245  -0.2028  0.5245  0.1595  -1.2099   0.0000   0.0000   0.0000   0.4494
   1.000   1.0124   0.00981   0.00250  -0.2030  0.5125  0.1963  -1.2222   0.0000   0.0000   0.0000   0.4472
   1.100   1.0236   0.00986   0.00258  -0.2032  0.4991  0.2463  -1.2342   0.0000   0.0000   0.0000   0.4450
   1.200   1.0360   0.00983   0.00264  -0.2037  0.4907  0.2999  -1.2471   0.0000   0.0000   0.0000   0.4430
   1.300   1.0474   0.00986   0.00271  -0.2038  0.4824  0.3314  -1.2600   0.0000   0.0000   0.0000   0.4409
   1.400   1.0587   0.00991   0.00281  -0.2040  0.4738  0.3785  -1.2745   0.0000   0.0000   0.0000   0.4388
   1.500   1.0705   0.00992   0.00293  -0.2043  0.4664  0.4312  -1.2894   0.0000   0.0000   0.0000   0.4368
   1.600   1.0826   0.00992   0.00303  -0.2046  0.4616  0.4700  -1.3047   0.0000   0.0000   0.0000   0.4348
   1.700   1.0938   0.00997   0.00312  -0.2047  0.4539  0.4977  -1.3193   0.0000   0.0000   0.0000   0.4328
   1.800   1.1041   0.01007   0.00323  -0.2046  0.4422  0.5142  -1.3332   0.0000   0.0000   0.0000   0.4308
   1.900   1.1137   0.01022   0.00334  -0.2043  0.4325  0.5239  -1.3465   0.0000   0.0000   0.0000   0.4288
   2.000   1.1238   0.01033   0.00342  -0.2041  0.4262  0.5281  -1.3603   0.0000   0.0000   0.0000   0.4269
   2.100   1.1340   0.01044   0.00349  -0.2039  0.4200  0.5315  -1.3741   0.0000   0.0000   0.0000   0.4249
   2.200   1.1440   0.01055   0.00357  -0.2037  0.4137  0.5359  -1.3879   0.0000   0.0000   0.0000   0.4230
   2.300   1.1540   0.01067   0.00371  -0.2035  0.4072  0.5436  -1.4017   0.0000   0.0000   0.0000   0.4212
   2.400   1.1644   0.01076   0.00379  -0.2034  0.4017  0.5494  -1.4158   0.0000   0.0000   0.0000   0.4194
   2.500   1.1753   0.01081   0.00386  -0.2034  0.3985  0.5553  -1.4322   0.0000   0.0000   0.0000   0.4176
   2.600   1.1859   0.01088   0.00392  -0.2033  0.3934  0.5608  -1.4496   0.0000   0.0000   0.0000   0.4158
   2.700   1.1959   0.01100   0.00400  -0.2030  0.3840  0.5653  -1.4664   0.0000   0.0000   0.0000   0.4140
   2.900   1.2145   0.01133   0.00427  -0.2024  0.3637  0.5819  -1.4989   0.0000   0.0000   0.0000   0.4107
   3.000   1.2242   0.01146   0.00438  -0.2022  0.3571  0.5900  -1.5183   0.0000   0.0000   0.0000   0.4090
   3.100   1.2336   0.01162   0.00449  -0.2019  0.3504  0.5966  -1.5386   0.0000   0.0000   0.0000   0.4073
   3.200   1.2431   0.01176   0.00461  -0.2016  0.3433  0.6048  -1.5589   0.0000   0.0000   0.0000   0.4057
   3.300   1.2532   0.01186   0.00472  -0.2014  0.3383  0.6127  -1.5800   0.0000   0.0000   0.0000   0.4041
   3.400   1.2637   0.01193   0.00481  -0.2013  0.3350  0.6198  -1.6016   0.0000   0.0000   0.0000   0.4025
   3.500   1.2738   0.01202   0.00489  -0.2011  0.3295  0.6253  -1.6229   0.0000   0.0000   0.0000   0.4010
   3.600   1.2831   0.01218   0.00501  -0.2008  0.3184  0.6291  -1.6432   0.0000   0.0000   0.0000   0.3994
   3.700   1.2908   0.01245   0.00518  -0.2002  0.3033  0.6343  -1.6618   0.0000   0.0000   0.0000   0.3979
   3.800   1.2999   0.01261   0.00532  -0.1998  0.2957  0.6389  -1.6861   0.0000   0.0000   0.0000   0.3964
   3.900   1.3087   0.01280   0.00546  -0.1995  0.2881  0.6427  -1.7162   0.0000   0.0000   0.0000   0.3949
   4.000   1.3177   0.01296   0.00562  -0.1991  0.2804  0.6463  -1.7466   0.0000   0.0000   0.0000   0.3935
   4.100   1.3277   0.01306   0.00572  -0.1989  0.2766  0.6500  -1.7789   0.0000   0.0000   0.0000   0.3920
   4.200   1.3377   0.01315   0.00581  -0.1987  0.2720  0.6534  -1.8112   0.0000   0.0000   0.0000   0.3906
   4.300   1.3472   0.01328   0.00593  -0.1984  0.2637  0.6565  -1.8429   0.0000   0.0000   0.0000   0.3892
   4.400   1.3539   0.01362   0.00614  -0.1977  0.2464  0.6590  -1.8702   0.0000   0.0000   0.0000   0.3878
   4.600   1.3708   0.01400   0.00645  -0.1968  0.2334  0.6658  -1.9309   0.0000   0.0000   0.0000   0.3851
   4.700   1.3793   0.01419   0.00660  -0.1964  0.2265  0.6693  -1.9616   0.0000   0.0000   0.0000   0.3837
   4.800   1.3887   0.01431   0.00672  -0.1961  0.2216  0.6728  -1.9937   0.0000   0.0000   0.0000   0.3824
   4.900   1.3985   0.01440   0.00683  -0.1959  0.2190  0.6763  -2.0268   0.0000   0.0000   0.0000   0.3811
   5.000   1.4080   0.01451   0.00694  -0.1956  0.2147  0.6798  -2.0595   0.0000   0.0000   0.0000   0.3798
   5.100   1.4166   0.01468   0.00710  -0.1952  0.2052  0.6833  -2.0907   0.0000   0.0000   0.0000   0.3785
   5.200   1.4227   0.01502   0.00735  -0.1944  0.1924  0.6865  -2.1179   0.0000   0.0000   0.0000   0.3772
   5.300   1.4305   0.01524   0.00751  -0.1938  0.1872  0.6895  -2.1482   0.0000   0.0000   0.0000   0.3759
   5.400   1.4376   0.01550   0.00772  -0.1932  0.1802  0.6927  -2.1772   0.0000   0.0000   0.0000   0.3746
   5.500   1.4448   0.01574   0.00792  -0.1925  0.1710  0.6969  -2.2065   0.0000   0.0000   0.0000   0.3734
   5.600   1.4536   0.01587   0.00807  -0.1921  0.1664  0.7011  -2.2389   0.0000   0.0000   0.0000   0.3721
   5.700   1.4588   0.01622   0.00836  -0.1911  0.1468  0.7051  -2.2650   0.0000   0.0000   0.0000   0.3709
   5.800   1.4626   0.01660   0.00865  -0.1899  0.1385  0.7092  -2.2890   0.0000   0.0000   0.0000   0.3695
   5.900   1.4667   0.01694   0.00892  -0.1887  0.1291  0.7135  -2.3133   0.0000   0.0000   0.0000   0.3682
   6.000   1.4734   0.01715   0.00912  -0.1879  0.1227  0.7179  -2.3423   0.0000   0.0000   0.0000   0.3669
   6.200   1.4831   0.01776   0.00966  -0.1858  0.1010  0.7274  -2.3946   0.0000   0.0000   0.0000   0.3643
   6.300   1.4872   0.01812   0.00997  -0.1847  0.0960  0.7329  -2.4193   0.0000   0.0000   0.0000   0.3631
   6.400   1.4903   0.01854   0.01036  -0.1834  0.0847  0.7384  -2.4422   0.0000   0.0000   0.0000   0.3618
   6.500   1.4981   0.01869   0.01053  -0.1828  0.0837  0.7444  -2.4737   0.0000   0.0000   0.0000   0.3606
   6.600   1.5058   0.01884   0.01070  -0.1823  0.0827  0.7499  -2.5051   0.0000   0.0000   0.0000   0.3594
   6.700   1.5135   0.01899   0.01089  -0.1817  0.0815  0.7565  -2.5365   0.0000   0.0000   0.0000   0.3583
   6.800   1.5209   0.01916   0.01108  -0.1811  0.0799  0.7635  -2.5675   0.0000   0.0000   0.0000   0.3572
   6.900   1.5281   0.01934   0.01129  -0.1805  0.0774  0.7706  -2.5982   0.0000   0.0000   0.0000   0.3560
   7.000   1.5338   0.01961   0.01156  -0.1796  0.0704  0.7775  -2.6267   0.0000   0.0000   0.0000   0.3549
   7.100   1.5385   0.01993   0.01187  -0.1786  0.0660  0.7850  -2.6538   0.0000   0.0000   0.0000   0.3537
   7.200   1.5440   0.02021   0.01215  -0.1778  0.0646  0.7934  -2.6820   0.0000   0.0000   0.0000   0.3526
   7.300   1.5493   0.02051   0.01244  -0.1769  0.0631  0.8020  -2.7099   0.0000   0.0000   0.0000   0.3514
   7.400   1.5546   0.02081   0.01273  -0.1760  0.0613  0.8109  -2.7378   0.0000   0.0000   0.0000   0.3503
   7.500   1.5598   0.02111   0.01304  -0.1751  0.0593  0.8215  -2.7654   0.0000   0.0000   0.0000   0.3492
   7.600   1.5652   0.02139   0.01334  -0.1743  0.0573  0.8329  -2.7933   0.0000   0.0000   0.0000   0.3481
   7.700   1.5707   0.02164   0.01363  -0.1734  0.0556  0.8473  -2.8212   0.0000   0.0000   0.0000   0.3470
   7.800   1.5761   0.02187   0.01391  -0.1726  0.0542  0.8659  -2.8488   0.0000   0.0000   0.0000   0.3459
   7.900   1.5790   0.02202   0.01415  -0.1712  0.0531  0.9050  -2.8721   0.0000   0.0000   0.0000   0.3446
   8.000   1.5790   0.02218   0.01435  -0.1692  0.0522  1.0000  -2.8901   0.0000   0.0000   0.0000   0.3432
   8.100   1.5856   0.02244   0.01462  -0.1686  0.0516  1.0000  -2.9223   0.0000   0.0000   0.0000   0.3422
   8.200   1.5924   0.02270   0.01490  -0.1681  0.0513  1.0000  -2.9563   0.0000   0.0000   0.0000   0.3413
   8.300   1.5989   0.02298   0.01519  -0.1675  0.0509  1.0000  -2.9897   0.0000   0.0000   0.0000   0.3403
   8.400   1.6053   0.02326   0.01549  -0.1669  0.0504  1.0000  -3.0227   0.0000   0.0000   0.0000   0.3394
   8.500   1.6115   0.02356   0.01580  -0.1663  0.0498  1.0000  -3.0555   0.0000   0.0000   0.0000   0.3384
   8.600   1.6176   0.02387   0.01612  -0.1657  0.0491  1.0000  -3.0879   0.0000   0.0000   0.0000   0.3375
   8.700   1.6234   0.02420   0.01646  -0.1651  0.0483  1.0000  -3.1199   0.0000   0.0000   0.0000   0.3365
   8.800   1.6290   0.02455   0.01682  -0.1644  0.0474  1.0000  -3.1516   0.0000   0.0000   0.0000   0.3356
   8.900   1.6343   0.02492   0.01720  -0.1637  0.0463  1.0000  -3.1830   0.0000   0.0000   0.0000   0.3347
   9.000   1.6412   0.02518   0.01753  -0.1633  0.0474  1.0000  -3.2126   0.0000   0.0000   0.0000   0.3338
   9.100   1.6467   0.02555   0.01791  -0.1626  0.0467  1.0000  -3.2437   0.0000   0.0000   0.0000   0.3328
   9.200   1.6518   0.02595   0.01832  -0.1619  0.0458  1.0000  -3.2745   0.0000   0.0000   0.0000   0.3319
   9.300   1.6564   0.02638   0.01876  -0.1612  0.0447  1.0000  -3.3051   0.0000   0.0000   0.0000   0.3311
   9.400   1.6605   0.02685   0.01923  -0.1605  0.0435  1.0000  -3.3352   0.0000   0.0000   0.0000   0.3302
   9.500   1.6640   0.02737   0.01975  -0.1596  0.0420  1.0000  -3.3642   0.0000   0.0000   0.0000   0.3293
   9.600   1.6671   0.02793   0.02030  -0.1588  0.0404  1.0000  -3.3923   0.0000   0.0000   0.0000   0.3284
   9.700   1.6706   0.02846   0.02084  -0.1580  0.0386  1.0000  -3.4204   0.0000   0.0000   0.0000   0.3275
   9.800   1.6757   0.02888   0.02127  -0.1574  0.0378  1.0000  -3.4548   0.0000   0.0000   0.0000   0.3267
   9.900   1.6806   0.02932   0.02171  -0.1568  0.0368  1.0000  -3.4901   0.0000   0.0000   0.0000   0.3259
  10.000   1.6849   0.02982   0.02220  -0.1562  0.0351  1.0000  -3.5248   0.0000   0.0000   0.0000   0.3251
  10.100   1.6879   0.03042   0.02278  -0.1554  0.0314  1.0000  -3.5598   0.0000   0.0000   0.0000   0.3243
  10.200   1.6838   0.03164   0.02391  -0.1540  0.0239  1.0000  -3.5879   0.0000   0.0000   0.0000   0.3235
  10.300   1.6822   0.03267   0.02489  -0.1529  0.0192  1.0000  -3.5831   0.0000   0.0000   0.0000   0.3227
  10.400   1.6848   0.03335   0.02557  -0.1522  0.0161  1.0000  -3.6125   0.0000   0.0000   0.0000   0.3219
  10.600   1.6777   0.03586   0.02809  -0.1497  0.0044  1.0000  -3.6422   0.0000   0.0000   0.0000   0.3204
  10.700   1.6802   0.03660   0.02885  -0.1491  0.0042  1.0000  -3.6786   0.0000   0.0000   0.0000   0.3197
  10.800   1.6827   0.03733   0.02961  -0.1484  0.0040  1.0000  -3.7139   0.0000   0.0000   0.0000   0.3190
  10.900   1.6851   0.03809   0.03040  -0.1478  0.0038  1.0000  -3.7474   0.0000   0.0000   0.0000   0.3183
  11.000   1.6876   0.03884   0.03117  -0.1472  0.0036  1.0000  -3.7799   0.0000   0.0000   0.0000   0.3176
  11.100   1.6905   0.03956   0.03191  -0.1466  0.0035  1.0000  -3.8119   0.0000   0.0000   0.0000   0.3169
  11.200   1.6936   0.04026   0.03264  -0.1461  0.0033  1.0000  -3.8439   0.0000   0.0000   0.0000   0.3162
  11.300   1.6967   0.04097   0.03337  -0.1456  0.0032  1.0000  -3.8760   0.0000   0.0000   0.0000   0.3155
  11.400   1.6993   0.04173   0.03417  -0.1450  0.0032  1.0000  -3.9071   0.0000   0.0000   0.0000   0.3149
  11.500   1.7019   0.04250   0.03497  -0.1445  0.0031  1.0000  -3.9381   0.0000   0.0000   0.0000   0.3142
  11.600   1.7045   0.04325   0.03575  -0.1440  0.0030  1.0000  -3.9695   0.0000   0.0000   0.0000   0.3136
  11.700   1.7073   0.04399   0.03653  -0.1435  0.0030  1.0000  -4.0013   0.0000   0.0000   0.0000   0.3129
  11.800   1.7100   0.04475   0.03732  -0.1430  0.0030  1.0000  -4.0333   0.0000   0.0000   0.0000   0.3123
  11.900   1.7121   0.04558   0.03821  -0.1425  0.0029  1.0000  -4.0628   0.0000   0.0000   0.0000   0.3117
  12.000   1.7141   0.04645   0.03911  -0.1420  0.0029  1.0000  -4.0927   0.0000   0.0000   0.0000   0.3111
  12.100   1.7164   0.04729   0.03999  -0.1415  0.0029  1.0000  -4.1234   0.0000   0.0000   0.0000   0.3105
  12.200   1.7188   0.04812   0.04086  -0.1411  0.0029  1.0000  -4.1547   0.0000   0.0000   0.0000   0.3099
  12.300   1.7213   0.04896   0.04173  -0.1407  0.0028  1.0000  -4.1862   0.0000   0.0000   0.0000   0.3093
  12.400   1.7237   0.04980   0.04261  -0.1402  0.0028  1.0000  -4.2319   0.0000   0.0000   0.0000   0.3087
  12.500   1.7257   0.05071   0.04356  -0.1398  0.0028  1.0000  -4.2898   0.0000   0.0000   0.0000   0.3082
  12.600   1.7272   0.05170   0.04459  -0.1394  0.0028  1.0000  -4.3452   0.0000   0.0000   0.0000   0.3076
  12.700   1.7288   0.05268   0.04560  -0.1390  0.0028  1.0000  -4.4017   0.0000   0.0000   0.0000   0.3071
  12.800   1.7307   0.05363   0.04660  -0.1387  0.0028  1.0000  -4.4595   0.0000   0.0000   0.0000   0.3066
  12.900   1.7326   0.05458   0.04759  -0.1383  0.0028  1.0000  -4.5178   0.0000   0.0000   0.0000   0.3061
  13.000   1.7345   0.05554   0.04859  -0.1379  0.0028  1.0000  -4.5762   0.0000   0.0000   0.0000   0.3055
  13.100   1.7356   0.05662   0.04970  -0.1376  0.0028  1.0000  -4.6306   0.0000   0.0000   0.0000   0.3051
  13.200   1.7364   0.05774   0.05087  -0.1373  0.0028  1.0000  -4.6837   0.0000   0.0000   0.0000   0.3046
  13.300   1.7375   0.05882   0.05199  -0.1370  0.0028  1.0000  -4.7386   0.0000   0.0000   0.0000   0.3042
  13.400   1.7389   0.05987   0.05308  -0.1367  0.0028  1.0000  -4.7947   0.0000   0.0000   0.0000   0.3037
  13.500   1.7403   0.06092   0.05417  -0.1364  0.0028  1.0000  -4.8514   0.0000   0.0000   0.0000   0.3032
  13.600   1.7417   0.06198   0.05527  -0.1361  0.0028  1.0000  -4.9079   0.0000   0.0000   0.0000   0.3028
  13.700   1.7427   0.06310   0.05643  -0.1358  0.0028  1.0000  -4.9621   0.0000   0.0000   0.0000   0.3023
  13.800   1.7428   0.06436   0.05774  -0.1356  0.0028  1.0000  -5.0119   0.0000   0.0000   0.0000   0.3020
  13.900   1.7431   0.06560   0.05902  -0.1354  0.0029  1.0000  -5.0625   0.0000   0.0000   0.0000   0.3016
  14.000   1.7438   0.06679   0.06026  -0.1352  0.0029  1.0000  -5.1148   0.0000   0.0000   0.0000   0.3012
  14.100   1.7445   0.06797   0.06147  -0.1350  0.0029  1.0000  -5.1679   0.0000   0.0000   0.0000   0.3008
  14.200   1.7453   0.06914   0.06269  -0.1348  0.0029  1.0000  -5.2210   0.0000   0.0000   0.0000   0.3004
  14.300   1.7455   0.07042   0.06402  -0.1346  0.0029  1.0000  -5.2703   0.0000   0.0000   0.0000   0.3001
  14.400   1.7448   0.07183   0.06547  -0.1345  0.0029  1.0000  -5.3153   0.0000   0.0000   0.0000   0.2998
  14.500   1.7447   0.07316   0.06685  -0.1344  0.0029  1.0000  -5.3632   0.0000   0.0000   0.0000   0.2995
  14.600   1.7450   0.07444   0.06817  -0.1343  0.0029  1.0000  -5.4127   0.0000   0.0000   0.0000   0.2992
  14.700   1.7453   0.07571   0.06947  -0.1342  0.0030  1.0000  -5.4624   0.0000   0.0000   0.0000   0.2989
  14.800   1.7455   0.07698   0.07078  -0.1340  0.0030  1.0000  -5.5117   0.0000   0.0000   0.0000   0.2986
  14.900   1.7455   0.07828   0.07213  -0.1340  0.0030  1.0000  -5.5592   0.0000   0.0000   0.0000   0.2983
  15.000   1.7440   0.07981   0.07371  -0.1339  0.0030  1.0000  -5.5987   0.0000   0.0000   0.0000   0.2981
  15.100   1.7426   0.08132   0.07526  -0.1339  0.0030  1.0000  -5.6387   0.0000   0.0000   0.0000   0.2979
  15.200   1.7418   0.08275   0.07673  -0.1339  0.0030  1.0000  -5.6814   0.0000   0.0000   0.0000   0.2976
  15.300   1.7413   0.08416   0.07819  -0.1339  0.0031  1.0000  -5.7255   0.0000   0.0000   0.0000   0.2974
  15.400   1.7407   0.08559   0.07965  -0.1339  0.0031  1.0000  -5.7693   0.0000   0.0000   0.0000   0.2972
  15.500   1.7392   0.08717   0.08131  -0.1340  0.0031  1.0000  -5.8105   0.0000   0.0000   0.0000   0.2970
  15.600   1.7371   0.08889   0.08308  -0.1341  0.0031  1.0000  -5.8452   0.0000   0.0000   0.0000   0.2970
  15.700   1.7358   0.09048   0.08471  -0.1342  0.0031  1.0000  -5.8846   0.0000   0.0000   0.0000   0.2968
  15.800   1.7349   0.09201   0.08628  -0.1343  0.0031  1.0000  -5.9259   0.0000   0.0000   0.0000   0.2967
  15.900   1.7340   0.09354   0.08785  -0.1344  0.0032  1.0000  -5.9672   0.0000   0.0000   0.0000   0.2965
  16.000   1.7330   0.09508   0.08944  -0.1346  0.0032  1.0000  -6.0076   0.0000   0.0000   0.0000   0.2964
  16.100   1.7311   0.09680   0.09120  -0.1348  0.0032  1.0000  -6.0427   0.0000   0.0000   0.0000   0.2964
  16.200   1.7284   0.09868   0.09314  -0.1351  0.0032  1.0000  -6.0727   0.0000   0.0000   0.0000   0.2964
  16.300   1.7265   0.10043   0.09493  -0.1354  0.0033  1.0000  -6.1067   0.0000   0.0000   0.0000   0.2964
  16.400   1.7249   0.10211   0.09666  -0.1357  0.0033  1.0000  -6.1424   0.0000   0.0000   0.0000   0.2964
  16.500   1.7233   0.10379   0.09838  -0.1359  0.0033  1.0000  -6.1781   0.0000   0.0000   0.0000   0.2964
  16.600   1.7212   0.10557   0.10022  -0.1363  0.0033  1.0000  -6.2103   0.0000   0.0000   0.0000   0.2964
  16.700   1.7179   0.10761   0.10230  -0.1368  0.0033  1.0000  -6.2347   0.0000   0.0000   0.0000   0.2966
  16.800   1.7155   0.10946   0.10420  -0.1372  0.0034  1.0000  -6.2645   0.0000   0.0000   0.0000   0.2967
  16.900   1.7136   0.11121   0.10600  -0.1376  0.0034  1.0000  -6.2971   0.0000   0.0000   0.0000   0.2967
  17.000   1.7117   0.11295   0.10779  -0.1380  0.0034  1.0000  -6.3296   0.0000   0.0000   0.0000   0.2968
  17.100   1.7100   0.11470   0.10959  -0.1384  0.0034  1.0000  -6.3621   0.0000   0.0000   0.0000   0.2969
  17.200   1.7073   0.11663   0.11156  -0.1389  0.0035  1.0000  -6.3885   0.0000   0.0000   0.0000   0.2971
  17.300   1.7034   0.11878   0.11377  -0.1396  0.0035  1.0000  -6.4071   0.0000   0.0000   0.0000   0.2974
  17.400   1.7005   0.12073   0.11578  -0.1402  0.0035  1.0000  -6.4314   0.0000   0.0000   0.0000   0.2976
  17.500   1.6981   0.12261   0.11770  -0.1408  0.0035  1.0000  -6.4581   0.0000   0.0000   0.0000   0.2978
  17.600   1.6958   0.12447   0.11962  -0.1414  0.0036  1.0000  -6.4853   0.0000   0.0000   0.0000   0.2980
  17.700   1.6921   0.12661   0.12182  -0.1422  0.0036  1.0000  -6.5028   0.0000   0.0000   0.0000   0.2984
  17.800   1.6883   0.12878   0.12403  -0.1430  0.0036  1.0000  -6.5190   0.0000   0.0000   0.0000   0.2988
  17.900   1.6857   0.13070   0.12601  -0.1437  0.0036  1.0000  -6.5425   0.0000   0.0000   0.0000   0.2991
  18.000   1.6836   0.13255   0.12791  -0.1444  0.0037  1.0000  -6.5688   0.0000   0.0000   0.0000   0.2993
  18.100   1.6815   0.13439   0.12980  -0.1450  0.0037  1.0000  -6.5947   0.0000   0.0000   0.0000   0.2996
  18.200   1.6791   0.13627   0.13174  -0.1458  0.0037  1.0000  -6.6186   0.0000   0.0000   0.0000   0.2999
  18.300   1.6751   0.13852   0.13404  -0.1468  0.0038  1.0000  -6.6296   0.0000   0.0000   0.0000   0.3004
  18.400   1.6712   0.14071   0.13630  -0.1477  0.0038  1.0000  -6.6418   0.0000   0.0000   0.0000   0.3009
  18.500   1.6685   0.14271   0.13835  -0.1486  0.0038  1.0000  -6.6607   0.0000   0.0000   0.0000   0.3013
  18.600   1.6659   0.14466   0.14036  -0.1495  0.0038  1.0000  -6.6804   0.0000   0.0000   0.0000   0.3017
  18.700   1.6631   0.14666   0.14240  -0.1504  0.0039  1.0000  -6.6980   0.0000   0.0000   0.0000   0.3022
  18.800   1.6586   0.14899   0.14479  -0.1516  0.0039  1.0000  -6.7013   0.0000   0.0000   0.0000   0.3029
  18.900   1.6555   0.15096   0.14683  -0.1526  0.0039  1.0000  -6.7142   0.0000   0.0000   0.0000   0.3034
  19.000   1.6531   0.15276   0.14868  -0.1536  0.0039  1.0000  -6.7320   0.0000   0.0000   0.0000   0.3039
  19.100   1.6510   0.15452   0.15049  -0.1545  0.0040  1.0000  -6.7503   0.0000   0.0000   0.0000   0.3043
  19.200   1.6488   0.15631   0.15234  -0.1555  0.0040  1.0000  -6.7673   0.0000   0.0000   0.0000   0.3048
  19.300   1.6463   0.15818   0.15426  -0.1565  0.0040  1.0000  -6.7815   0.0000   0.0000   0.0000   0.3053
  19.400   1.6420   0.16047   0.15660  -0.1579  0.0041  1.0000  -6.7818   0.0000   0.0000   0.0000   0.3061
  19.500   1.6383   0.16267   0.15887  -0.1591  0.0041  1.0000  -6.7854   0.0000   0.0000   0.0000   0.3068
  19.600   1.6354   0.16475   0.16099  -0.1603  0.0041  1.0000  -6.7935   0.0000   0.0000   0.0000   0.3074
  19.700   1.6325   0.16680   0.16311  -0.1615  0.0042  1.0000  -6.8017   0.0000   0.0000   0.0000   0.3080
  19.800   1.6294   0.16895   0.16531  -0.1627  0.0042  1.0000  -6.8068   0.0000   0.0000   0.0000   0.3087
  19.900   1.6248   0.17151   0.16793  -0.1642  0.0042  1.0000  -6.7992   0.0000   0.0000   0.0000   0.3097
  20.000   1.6213   0.17381   0.17029  -0.1655  0.0042  1.0000  -6.7995   0.0000   0.0000   0.0000   0.3104


