xflr5 v6.59

 Calculated polar for: WORTMANN FX 63-137 AIRFOIL

 1 1 Reynolds number fixed          Mach number fixed         

 xtrf =   1.000 (top)        1.000 (bottom)
 Mach =   0.000     Re =     0.200 e 6     Ncrit =   9.000

  alpha     CL        CD       CDp       Cm    Top Xtr Bot Xtr   Cpmin    Chinge    XCp    
 ------- -------- --------- --------- -------- ------- ------- -------- --------- ---------
   0.000   0.8947   0.01328   0.00606  -0.2041  0.7169  0.5693  -1.0927   0.0000   0.0000   0.0000   0.4765
   0.100   0.9031   0.01335   0.00623  -0.2033  0.7130  0.5822  -1.1011   0.0000   0.0000   0.0000   0.4734
   0.200   0.9129   0.01348   0.00636  -0.2029  0.7090  0.5971  -1.1104   0.0000   0.0000   0.0000   0.4703
   0.300   0.9210   0.01353   0.00651  -0.2020  0.7052  0.6093  -1.1187   0.0000   0.0000   0.0000   0.4672
   0.400   0.9301   0.01364   0.00665  -0.2012  0.7017  0.6225  -1.1277   0.0000   0.0000   0.0000   0.4642
   0.500   0.9402   0.01371   0.00672  -0.2008  0.6984  0.6335  -1.1374   0.0000   0.0000   0.0000   0.4612
   0.600   0.9494   0.01377   0.00682  -0.2001  0.6953  0.6415  -1.1465   0.0000   0.0000   0.0000   0.4583
   0.700   0.9602   0.01384   0.00687  -0.1998  0.6924  0.6479  -1.1577   0.0000   0.0000   0.0000   0.4555
   0.800   0.9708   0.01389   0.00692  -0.1997  0.6894  0.6527  -1.1692   0.0000   0.0000   0.0000   0.4529
   0.900   0.9813   0.01394   0.00699  -0.1995  0.6862  0.6571  -1.1805   0.0000   0.0000   0.0000   0.4504
   1.000   0.9923   0.01399   0.00705  -0.1995  0.6829  0.6606  -1.1922   0.0000   0.0000   0.0000   0.4480
   1.100   1.0024   0.01396   0.00706  -0.1993  0.6796  0.6640  -1.2034   0.0000   0.0000   0.0000   0.4456
   1.200   1.0127   0.01396   0.00708  -0.1991  0.6764  0.6669  -1.2147   0.0000   0.0000   0.0000   0.4432
   1.300   1.0233   0.01397   0.00709  -0.1989  0.6733  0.6700  -1.2263   0.0000   0.0000   0.0000   0.4408
   1.400   1.0342   0.01399   0.00709  -0.1988  0.6702  0.6731  -1.2382   0.0000   0.0000   0.0000   0.4385
   1.500   1.0456   0.01401   0.00709  -0.1987  0.6672  0.6763  -1.2524   0.0000   0.0000   0.0000   0.4363
   1.600   1.0573   0.01404   0.00708  -0.1988  0.6643  0.6797  -1.2673   0.0000   0.0000   0.0000   0.4341
   1.700   1.0695   0.01409   0.00709  -0.1990  0.6613  0.6833  -1.2824   0.0000   0.0000   0.0000   0.4319
   1.800   1.0802   0.01413   0.00715  -0.1989  0.6583  0.6869  -1.2963   0.0000   0.0000   0.0000   0.4299
   1.900   1.0908   0.01418   0.00721  -0.1989  0.6548  0.6903  -1.3101   0.0000   0.0000   0.0000   0.4279
   2.000   1.1009   0.01418   0.00725  -0.1987  0.6511  0.6935  -1.3237   0.0000   0.0000   0.0000   0.4259
   2.100   1.1106   0.01418   0.00729  -0.1983  0.6471  0.6966  -1.3370   0.0000   0.0000   0.0000   0.4239
   2.200   1.1206   0.01419   0.00731  -0.1980  0.6428  0.6999  -1.3506   0.0000   0.0000   0.0000   0.4219
   2.300   1.1308   0.01420   0.00731  -0.1978  0.6384  0.7034  -1.3646   0.0000   0.0000   0.0000   0.4199
   2.400   1.1415   0.01422   0.00734  -0.1976  0.6341  0.7071  -1.3790   0.0000   0.0000   0.0000   0.4179
   2.500   1.1528   0.01426   0.00732  -0.1975  0.6299  0.7110  -1.3938   0.0000   0.0000   0.0000   0.4161
   2.600   1.1629   0.01429   0.00738  -0.1973  0.6255  0.7149  -1.4077   0.0000   0.0000   0.0000   0.4143
   2.700   1.1732   0.01432   0.00742  -0.1972  0.6205  0.7186  -1.4245   0.0000   0.0000   0.0000   0.4125
   2.800   1.1837   0.01435   0.00744  -0.1971  0.6153  0.7218  -1.4417   0.0000   0.0000   0.0000   0.4107
   2.900   1.1936   0.01434   0.00743  -0.1967  0.6103  0.7248  -1.4584   0.0000   0.0000   0.0000   0.4090
   3.000   1.2036   0.01436   0.00742  -0.1965  0.6055  0.7279  -1.4754   0.0000   0.0000   0.0000   0.4072
   3.100   1.2140   0.01440   0.00742  -0.1962  0.6010  0.7311  -1.4927   0.0000   0.0000   0.0000   0.4055
   3.200   1.2246   0.01447   0.00745  -0.1961  0.5969  0.7346  -1.5101   0.0000   0.0000   0.0000   0.4038
   3.300   1.2344   0.01450   0.00754  -0.1958  0.5929  0.7383  -1.5289   0.0000   0.0000   0.0000   0.4022
   3.400   1.2445   0.01455   0.00762  -0.1957  0.5884  0.7421  -1.5496   0.0000   0.0000   0.0000   0.4006
   3.500   1.2549   0.01461   0.00768  -0.1956  0.5836  0.7460  -1.5707   0.0000   0.0000   0.0000   0.3991
   3.600   1.2656   0.01467   0.00773  -0.1955  0.5786  0.7498  -1.5922   0.0000   0.0000   0.0000   0.3976
   3.700   1.2753   0.01470   0.00775  -0.1952  0.5736  0.7531  -1.6128   0.0000   0.0000   0.0000   0.3960
   3.800   1.2850   0.01475   0.00778  -0.1948  0.5687  0.7566  -1.6394   0.0000   0.0000   0.0000   0.3944
   3.900   1.2947   0.01482   0.00783  -0.1945  0.5641  0.7604  -1.6705   0.0000   0.0000   0.0000   0.3929
   4.000   1.3043   0.01487   0.00797  -0.1942  0.5593  0.7645  -1.7014   0.0000   0.0000   0.0000   0.3914
   4.100   1.3140   0.01493   0.00805  -0.1940  0.5541  0.7688  -1.7326   0.0000   0.0000   0.0000   0.3899
   4.200   1.3239   0.01501   0.00811  -0.1937  0.5486  0.7735  -1.7644   0.0000   0.0000   0.0000   0.3885
   4.300   1.3340   0.01510   0.00816  -0.1935  0.5430  0.7781  -1.7966   0.0000   0.0000   0.0000   0.3871
   4.400   1.3427   0.01517   0.00820  -0.1930  0.5377  0.7823  -1.8271   0.0000   0.0000   0.0000   0.3856
   4.500   1.3518   0.01527   0.00826  -0.1926  0.5324  0.7869  -1.8581   0.0000   0.0000   0.0000   0.3842
   4.600   1.3609   0.01532   0.00837  -0.1922  0.5274  0.7920  -1.8891   0.0000   0.0000   0.0000   0.3828
   4.700   1.3702   0.01539   0.00848  -0.1919  0.5216  0.7976  -1.9207   0.0000   0.0000   0.0000   0.3814
   4.800   1.3799   0.01549   0.00857  -0.1916  0.5151  0.8034  -1.9529   0.0000   0.0000   0.0000   0.3801
   4.900   1.3882   0.01557   0.00865  -0.1911  0.5088  0.8085  -1.9833   0.0000   0.0000   0.0000   0.3787
   5.000   1.3962   0.01567   0.00872  -0.1904  0.5029  0.8142  -2.0134   0.0000   0.0000   0.0000   0.3773
   5.100   1.4049   0.01577   0.00882  -0.1900  0.4975  0.8206  -2.0446   0.0000   0.0000   0.0000   0.3760
   5.200   1.4143   0.01586   0.00893  -0.1897  0.4921  0.8274  -2.0769   0.0000   0.0000   0.0000   0.3748
   5.300   1.4226   0.01595   0.00902  -0.1891  0.4866  0.8336  -2.1076   0.0000   0.0000   0.0000   0.3734
   5.400   1.4302   0.01604   0.00912  -0.1884  0.4812  0.8403  -2.1375   0.0000   0.0000   0.0000   0.3721
   5.500   1.4383   0.01616   0.00921  -0.1879  0.4759  0.8480  -2.1682   0.0000   0.0000   0.0000   0.3708
   5.600   1.4461   0.01630   0.00931  -0.1873  0.4708  0.8556  -2.1985   0.0000   0.0000   0.0000   0.3695
   5.700   1.4529   0.01639   0.00941  -0.1864  0.4662  0.8638  -2.2273   0.0000   0.0000   0.0000   0.3682
   5.800   1.4612   0.01644   0.00952  -0.1859  0.4615  0.8738  -2.2584   0.0000   0.0000   0.0000   0.3669
   5.900   1.4676   0.01648   0.00962  -0.1850  0.4563  0.8850  -2.2867   0.0000   0.0000   0.0000   0.3656
   6.000   1.4733   0.01653   0.00970  -0.1839  0.4507  0.9000  -2.3138   0.0000   0.0000   0.0000   0.3642
   6.100   1.4755   0.01652   0.00972  -0.1821  0.4455  0.9290  -2.3352   0.0000   0.0000   0.0000   0.3626
   6.200   1.4815   0.01660   0.00979  -0.1812  0.4395  1.0000  -2.3631   0.0000   0.0000   0.0000   0.3614
   6.300   1.4914   0.01682   0.00996  -0.1812  0.4334  1.0000  -2.3975   0.0000   0.0000   0.0000   0.3604
   6.400   1.5018   0.01700   0.01018  -0.1812  0.4278  1.0000  -2.4327   0.0000   0.0000   0.0000   0.3594
   6.500   1.5114   0.01719   0.01035  -0.1811  0.4219  1.0000  -2.4666   0.0000   0.0000   0.0000   0.3584
   6.600   1.5200   0.01741   0.01053  -0.1808  0.4159  1.0000  -2.4992   0.0000   0.0000   0.0000   0.3574
   6.700   1.5277   0.01765   0.01072  -0.1803  0.4101  1.0000  -2.5305   0.0000   0.0000   0.0000   0.3563
   6.800   1.5350   0.01791   0.01092  -0.1798  0.4045  1.0000  -2.5610   0.0000   0.0000   0.0000   0.3552
   6.900   1.5437   0.01809   0.01110  -0.1794  0.3997  1.0000  -2.5939   0.0000   0.0000   0.0000   0.3542
   7.000   1.5528   0.01824   0.01129  -0.1792  0.3943  1.0000  -2.6276   0.0000   0.0000   0.0000   0.3531
   7.100   1.5608   0.01842   0.01148  -0.1787  0.3878  1.0000  -2.6595   0.0000   0.0000   0.0000   0.3521
   7.200   1.5674   0.01864   0.01169  -0.1780  0.3809  1.0000  -2.6891   0.0000   0.0000   0.0000   0.3510
   7.300   1.5728   0.01890   0.01191  -0.1771  0.3742  1.0000  -2.7167   0.0000   0.0000   0.0000   0.3498
   7.400   1.5783   0.01917   0.01215  -0.1762  0.3683  1.0000  -2.7446   0.0000   0.0000   0.0000   0.3487
   7.500   1.5845   0.01941   0.01237  -0.1754  0.3619  1.0000  -2.7737   0.0000   0.0000   0.0000   0.3476
   7.600   1.5889   0.01972   0.01264  -0.1743  0.3543  1.0000  -2.7998   0.0000   0.0000   0.0000   0.3465
   7.700   1.5913   0.02010   0.01295  -0.1729  0.3463  1.0000  -2.8224   0.0000   0.0000   0.0000   0.3453
   7.800   1.5934   0.02051   0.01328  -0.1715  0.3382  1.0000  -2.8444   0.0000   0.0000   0.0000   0.3441
   7.900   1.5997   0.02075   0.01354  -0.1708  0.3266  1.0000  -2.8738   0.0000   0.0000   0.0000   0.3430
   8.100   1.6015   0.02171   0.01434  -0.1678  0.2996  1.0000  -2.9138   0.0000   0.0000   0.0000   0.3406
   8.200   1.6010   0.02230   0.01482  -0.1661  0.2884  1.0000  -2.9310   0.0000   0.0000   0.0000   0.3395
   8.300   1.5998   0.02293   0.01535  -0.1644  0.2782  1.0000  -2.9470   0.0000   0.0000   0.0000   0.3383
   8.400   1.6040   0.02332   0.01573  -0.1635  0.2617  1.0000  -2.9726   0.0000   0.0000   0.0000   0.3373
   8.500   1.6020   0.02405   0.01634  -0.1617  0.2462  1.0000  -2.9871   0.0000   0.0000   0.0000   0.3361
   8.600   1.6004   0.02479   0.01698  -0.1601  0.2355  1.0000  -3.0020   0.0000   0.0000   0.0000   0.3350
   8.700   1.5983   0.02559   0.01767  -0.1585  0.2257  1.0000  -3.0158   0.0000   0.0000   0.0000   0.3340
   8.800   1.6013   0.02611   0.01818  -0.1575  0.2149  1.0000  -3.0388   0.0000   0.0000   0.0000   0.3330
   9.000   1.6002   0.02765   0.01956  -0.1549  0.1876  1.0000  -3.0720   0.0000   0.0000   0.0000   0.3311
   9.100   1.5989   0.02851   0.02033  -0.1536  0.1794  1.0000  -3.0868   0.0000   0.0000   0.0000   0.3301
   9.200   1.5977   0.02936   0.02111  -0.1523  0.1721  1.0000  -3.1017   0.0000   0.0000   0.0000   0.3292
   9.400   1.6077   0.03022   0.02212  -0.1511  0.1670  1.0000  -3.1541   0.0000   0.0000   0.0000   0.3275
   9.500   1.6119   0.03073   0.02264  -0.1504  0.1578  1.0000  -3.1789   0.0000   0.0000   0.0000   0.3266
   9.600   1.6124   0.03151   0.02339  -0.1494  0.1457  1.0000  -3.1969   0.0000   0.0000   0.0000   0.3258
   9.700   1.6128   0.03233   0.02417  -0.1484  0.1413  1.0000  -3.2183   0.0000   0.0000   0.0000   0.3250
   9.800   1.6136   0.03313   0.02494  -0.1475  0.1372  1.0000  -3.2410   0.0000   0.0000   0.0000   0.3242
   9.900   1.6141   0.03395   0.02574  -0.1466  0.1332  1.0000  -3.2632   0.0000   0.0000   0.0000   0.3234
  10.000   1.6148   0.03479   0.02655  -0.1457  0.1292  1.0000  -3.2854   0.0000   0.0000   0.0000   0.3226
  10.100   1.6161   0.03559   0.02734  -0.1449  0.1253  1.0000  -3.3088   0.0000   0.0000   0.0000   0.3218
  10.200   1.6201   0.03617   0.02795  -0.1443  0.1224  1.0000  -3.3384   0.0000   0.0000   0.0000   0.3211
  10.300   1.6244   0.03672   0.02855  -0.1438  0.1190  1.0000  -3.3689   0.0000   0.0000   0.0000   0.3203
  10.400   1.6277   0.03736   0.02922  -0.1432  0.1140  1.0000  -3.3970   0.0000   0.0000   0.0000   0.3195
  10.500   1.6294   0.03815   0.03002  -0.1425  0.1072  1.0000  -3.4217   0.0000   0.0000   0.0000   0.3188
  10.600   1.6295   0.03909   0.03093  -0.1417  0.1024  1.0000  -3.4429   0.0000   0.0000   0.0000   0.3181
  10.700   1.6297   0.04003   0.03186  -0.1409  0.1001  1.0000  -3.4661   0.0000   0.0000   0.0000   0.3175
  10.800   1.6301   0.04097   0.03279  -0.1402  0.0978  1.0000  -3.4909   0.0000   0.0000   0.0000   0.3168
  10.900   1.6304   0.04191   0.03372  -0.1395  0.0955  1.0000  -3.5158   0.0000   0.0000   0.0000   0.3161
  11.000   1.6308   0.04287   0.03466  -0.1388  0.0932  1.0000  -3.5405   0.0000   0.0000   0.0000   0.3155
  11.100   1.6307   0.04386   0.03565  -0.1381  0.0910  1.0000  -3.5640   0.0000   0.0000   0.0000   0.3149
  11.200   1.6306   0.04486   0.03666  -0.1375  0.0889  1.0000  -3.5871   0.0000   0.0000   0.0000   0.3143
  11.300   1.6308   0.04586   0.03767  -0.1368  0.0867  1.0000  -3.6106   0.0000   0.0000   0.0000   0.3137
  11.400   1.6312   0.04684   0.03867  -0.1362  0.0847  1.0000  -3.6347   0.0000   0.0000   0.0000   0.3131
  11.500   1.6346   0.04754   0.03941  -0.1358  0.0835  1.0000  -3.6674   0.0000   0.0000   0.0000   0.3124
  11.600   1.6382   0.04823   0.04015  -0.1354  0.0822  1.0000  -3.7006   0.0000   0.0000   0.0000   0.3118
  11.700   1.6414   0.04896   0.04093  -0.1350  0.0806  1.0000  -3.7329   0.0000   0.0000   0.0000   0.3112
  11.800   1.6444   0.04972   0.04175  -0.1346  0.0787  1.0000  -3.7644   0.0000   0.0000   0.0000   0.3105
  11.900   1.6468   0.05055   0.04260  -0.1342  0.0765  1.0000  -3.7945   0.0000   0.0000   0.0000   0.3100
  12.000   1.6488   0.05142   0.04351  -0.1337  0.0740  1.0000  -3.8233   0.0000   0.0000   0.0000   0.3094
  12.100   1.6502   0.05237   0.04447  -0.1333  0.0715  1.0000  -3.8506   0.0000   0.0000   0.0000   0.3088
  12.200   1.6505   0.05346   0.04557  -0.1329  0.0692  1.0000  -3.8747   0.0000   0.0000   0.0000   0.3084
  12.300   1.6500   0.05464   0.04675  -0.1324  0.0672  1.0000  -3.8967   0.0000   0.0000   0.0000   0.3079
  12.400   1.6505   0.05572   0.04784  -0.1320  0.0659  1.0000  -3.9329   0.0000   0.0000   0.0000   0.3074
  12.500   1.6509   0.05683   0.04898  -0.1317  0.0644  1.0000  -3.9795   0.0000   0.0000   0.0000   0.3070
  12.600   1.6513   0.05793   0.05008  -0.1313  0.0632  1.0000  -4.0290   0.0000   0.0000   0.0000   0.3065
  12.700   1.6514   0.05910   0.05126  -0.1310  0.0621  1.0000  -4.0764   0.0000   0.0000   0.0000   0.3061
  12.800   1.6510   0.06033   0.05249  -0.1307  0.0609  1.0000  -4.1215   0.0000   0.0000   0.0000   0.3057
  12.900   1.6498   0.06166   0.05380  -0.1303  0.0592  1.0000  -4.1627   0.0000   0.0000   0.0000   0.3053
  13.000   1.6482   0.06306   0.05517  -0.1300  0.0571  1.0000  -4.2012   0.0000   0.0000   0.0000   0.3050
  13.100   1.6463   0.06449   0.05660  -0.1297  0.0548  1.0000  -4.2380   0.0000   0.0000   0.0000   0.3047
  13.200   1.6441   0.06600   0.05812  -0.1295  0.0526  1.0000  -4.2724   0.0000   0.0000   0.0000   0.3044
  13.300   1.6476   0.06678   0.05893  -0.1293  0.0508  1.0000  -4.3369   0.0000   0.0000   0.0000   0.3039
  13.400   1.6513   0.06755   0.05975  -0.1292  0.0496  1.0000  -4.4013   0.0000   0.0000   0.0000   0.3034
  13.500   1.6543   0.06842   0.06068  -0.1290  0.0483  1.0000  -4.4612   0.0000   0.0000   0.0000   0.3030
  13.600   1.6567   0.06935   0.06165  -0.1289  0.0469  1.0000  -4.5184   0.0000   0.0000   0.0000   0.3025
  13.700   1.6587   0.07034   0.06268  -0.1287  0.0453  1.0000  -4.5727   0.0000   0.0000   0.0000   0.3021
  13.800   1.6599   0.07144   0.06380  -0.1285  0.0437  1.0000  -4.6227   0.0000   0.0000   0.0000   0.3017
  13.900   1.6600   0.07269   0.06507  -0.1284  0.0422  1.0000  -4.6670   0.0000   0.0000   0.0000   0.3014
  14.000   1.6590   0.07409   0.06649  -0.1283  0.0408  1.0000  -4.7056   0.0000   0.0000   0.0000   0.3012
  14.100   1.6575   0.07555   0.06796  -0.1282  0.0395  1.0000  -4.7414   0.0000   0.0000   0.0000   0.3009
  14.200   1.6561   0.07699   0.06941  -0.1281  0.0382  1.0000  -4.7770   0.0000   0.0000   0.0000   0.3007
  14.300   1.6595   0.07781   0.07027  -0.1280  0.0371  1.0000  -4.8365   0.0000   0.0000   0.0000   0.3003
  14.400   1.6620   0.07875   0.07125  -0.1279  0.0357  1.0000  -4.8909   0.0000   0.0000   0.0000   0.2999
  14.500   1.6638   0.07979   0.07232  -0.1279  0.0339  1.0000  -4.9417   0.0000   0.0000   0.0000   0.2995
  14.600   1.6644   0.08100   0.07356  -0.1278  0.0313  1.0000  -4.9870   0.0000   0.0000   0.0000   0.2992
  14.700   1.6599   0.08292   0.07545  -0.1279  0.0249  1.0000  -5.0078   0.0000   0.0000   0.0000   0.2992
  14.800   1.6505   0.08553   0.07796  -0.1281  0.0197  1.0000  -5.0040   0.0000   0.0000   0.0000   0.2995
  14.900   1.6423   0.08801   0.08037  -0.1282  0.0136  1.0000  -5.0039   0.0000   0.0000   0.0000   0.2998
  15.000   1.6371   0.09014   0.08252  -0.1285  0.0098  1.0000  -5.0179   0.0000   0.0000   0.0000   0.2999
  15.100   1.6347   0.09188   0.08429  -0.1286  0.0095  1.0000  -5.0468   0.0000   0.0000   0.0000   0.2999
  15.200   1.6325   0.09360   0.08603  -0.1288  0.0093  1.0000  -5.0761   0.0000   0.0000   0.0000   0.2999
  15.300   1.6303   0.09531   0.08777  -0.1290  0.0091  1.0000  -5.1056   0.0000   0.0000   0.0000   0.2999
  15.400   1.6282   0.09703   0.08951  -0.1292  0.0089  1.0000  -5.1353   0.0000   0.0000   0.0000   0.2999
  15.500   1.6259   0.09880   0.09131  -0.1295  0.0088  1.0000  -5.1636   0.0000   0.0000   0.0000   0.2999
  15.600   1.6235   0.10059   0.09315  -0.1298  0.0086  1.0000  -5.1913   0.0000   0.0000   0.0000   0.3000
  15.700   1.6217   0.10230   0.09489  -0.1301  0.0085  1.0000  -5.2220   0.0000   0.0000   0.0000   0.3000
  15.800   1.6194   0.10407   0.09669  -0.1304  0.0081  1.0000  -5.2505   0.0000   0.0000   0.0000   0.3001
  15.900   1.6192   0.10553   0.09821  -0.1307  0.0078  1.0000  -5.2901   0.0000   0.0000   0.0000   0.3000
  16.000   1.6187   0.10704   0.09978  -0.1310  0.0075  1.0000  -5.3278   0.0000   0.0000   0.0000   0.3000
  16.100   1.6170   0.10877   0.10156  -0.1314  0.0074  1.0000  -5.3581   0.0000   0.0000   0.0000   0.3001
  16.200   1.6155   0.11046   0.10332  -0.1318  0.0073  1.0000  -5.3895   0.0000   0.0000   0.0000   0.3002
  16.300   1.6144   0.11209   0.10501  -0.1322  0.0071  1.0000  -5.4232   0.0000   0.0000   0.0000   0.3002
  16.400   1.6135   0.11369   0.10666  -0.1326  0.0070  1.0000  -5.4580   0.0000   0.0000   0.0000   0.3003
  16.500   1.6126   0.11527   0.10831  -0.1330  0.0069  1.0000  -5.4929   0.0000   0.0000   0.0000   0.3003
  16.600   1.6116   0.11686   0.10996  -0.1335  0.0068  1.0000  -5.5273   0.0000   0.0000   0.0000   0.3004
  16.700   1.6102   0.11854   0.11170  -0.1340  0.0068  1.0000  -5.5591   0.0000   0.0000   0.0000   0.3005
  16.900   1.6073   0.12198   0.11531  -0.1351  0.0067  1.0000  -5.6232   0.0000   0.0000   0.0000   0.3008
  17.000   1.6060   0.12366   0.11705  -0.1356  0.0066  1.0000  -5.6550   0.0000   0.0000   0.0000   0.3010
  17.100   1.6048   0.12532   0.11877  -0.1362  0.0066  1.0000  -5.6870   0.0000   0.0000   0.0000   0.3012
  17.200   1.6036   0.12698   0.12049  -0.1367  0.0065  1.0000  -5.7186   0.0000   0.0000   0.0000   0.3013
  17.300   1.6018   0.12877   0.12235  -0.1374  0.0065  1.0000  -5.7464   0.0000   0.0000   0.0000   0.3016
  17.400   1.6000   0.13057   0.12421  -0.1381  0.0064  1.0000  -5.7737   0.0000   0.0000   0.0000   0.3019
  17.500   1.5985   0.13230   0.12601  -0.1388  0.0064  1.0000  -5.8028   0.0000   0.0000   0.0000   0.3021
  17.600   1.5972   0.13400   0.12777  -0.1395  0.0064  1.0000  -5.8329   0.0000   0.0000   0.0000   0.3024
  17.700   1.5960   0.13568   0.12951  -0.1401  0.0063  1.0000  -5.8632   0.0000   0.0000   0.0000   0.3026
  17.800   1.5948   0.13735   0.13125  -0.1408  0.0063  1.0000  -5.8938   0.0000   0.0000   0.0000   0.3028
  17.900   1.5935   0.13908   0.13304  -0.1416  0.0063  1.0000  -5.9226   0.0000   0.0000   0.0000   0.3031
  18.000   1.5914   0.14096   0.13499  -0.1424  0.0063  1.0000  -5.9461   0.0000   0.0000   0.0000   0.3035
  18.100   1.5895   0.14279   0.13688  -0.1433  0.0062  1.0000  -5.9700   0.0000   0.0000   0.0000   0.3039
  18.200   1.5879   0.14451   0.13867  -0.1441  0.0062  1.0000  -5.9956   0.0000   0.0000   0.0000   0.3043
  18.300   1.5864   0.14619   0.14041  -0.1450  0.0062  1.0000  -6.0218   0.0000   0.0000   0.0000   0.3047
  18.400   1.5851   0.14787   0.14215  -0.1459  0.0062  1.0000  -6.0483   0.0000   0.0000   0.0000   0.3050
  18.500   1.5831   0.14968   0.14403  -0.1468  0.0062  1.0000  -6.0700   0.0000   0.0000   0.0000   0.3055
  18.600   1.5808   0.15158   0.14600  -0.1479  0.0061  1.0000  -6.0885   0.0000   0.0000   0.0000   0.3060
  18.700   1.5788   0.15342   0.14791  -0.1489  0.0061  1.0000  -6.1089   0.0000   0.0000   0.0000   0.3066
  18.800   1.5771   0.15524   0.14979  -0.1499  0.0061  1.0000  -6.1308   0.0000   0.0000   0.0000   0.3070
  18.900   1.5754   0.15706   0.15167  -0.1509  0.0061  1.0000  -6.1531   0.0000   0.0000   0.0000   0.3075
  19.000   1.5736   0.15893   0.15361  -0.1519  0.0061  1.0000  -6.1738   0.0000   0.0000   0.0000   0.3080
  19.100   1.5714   0.16091   0.15566  -0.1530  0.0061  1.0000  -6.1906   0.0000   0.0000   0.0000   0.3086
  19.200   1.5682   0.16314   0.15796  -0.1543  0.0061  1.0000  -6.1992   0.0000   0.0000   0.0000   0.3094
  19.300   1.5652   0.16534   0.16023  -0.1556  0.0061  1.0000  -6.2087   0.0000   0.0000   0.0000   0.3101
  19.400   1.5626   0.16750   0.16246  -0.1568  0.0061  1.0000  -6.2204   0.0000   0.0000   0.0000   0.3108
  19.500   1.5599   0.16971   0.16473  -0.1580  0.0061  1.0000  -6.2308   0.0000   0.0000   0.0000   0.3116
  19.600   1.5564   0.17212   0.16721  -0.1594  0.0061  1.0000  -6.2340   0.0000   0.0000   0.0000   0.3125
  19.700   1.5527   0.17462   0.16978  -0.1609  0.0061  1.0000  -6.2341   0.0000   0.0000   0.0000   0.3134
  19.800   1.5496   0.17702   0.17225  -0.1623  0.0061  1.0000  -6.2384   0.0000   0.0000   0.0000   0.3143
  19.900   1.5465   0.17942   0.17472  -0.1637  0.0061  1.0000  -6.2430   0.0000   0.0000   0.0000   0.3151
  20.000   1.5433   0.18188   0.17724  -0.1651  0.0061  1.0000  -6.2455   0.0000   0.0000   0.0000   0.3160


