xflr5 v6.59

 Calculated polar for: WORTMANN FX 63-137 AIRFOIL

 1 1 Reynolds number fixed          Mach number fixed         

 xtrf =   1.000 (top)        1.000 (bottom)
 Mach =   0.000     Re =     0.700 e 6     Ncrit =   9.000

  alpha     CL        CD       CDp       Cm    Top Xtr Bot Xtr   Cpmin    Chinge    XCp    
 ------- -------- --------- --------- -------- ------- ------- -------- --------- ---------
   0.000   0.9008   0.00936   0.00204  -0.2026  0.5485  0.0366  -1.1161   0.0000   0.0000   0.0000   0.4730
   0.100   0.9115   0.00942   0.00207  -0.2025  0.5427  0.0373  -1.1258   0.0000   0.0000   0.0000   0.4701
   0.200   0.9219   0.00949   0.00210  -0.2024  0.5360  0.0379  -1.1354   0.0000   0.0000   0.0000   0.4673
   0.300   0.9330   0.00953   0.00213  -0.2023  0.5311  0.0387  -1.1454   0.0000   0.0000   0.0000   0.4645
   0.400   0.9443   0.00956   0.00215  -0.2024  0.5261  0.0410  -1.1557   0.0000   0.0000   0.0000   0.4618
   0.500   0.9550   0.00962   0.00218  -0.2023  0.5152  0.0446  -1.1655   0.0000   0.0000   0.0000   0.4592
   0.600   0.9641   0.00979   0.00226  -0.2019  0.4987  0.0481  -1.1743   0.0000   0.0000   0.0000   0.4567
   0.700   0.9743   0.00989   0.00233  -0.2018  0.4869  0.0514  -1.1850   0.0000   0.0000   0.0000   0.4542
   0.800   0.9840   0.01002   0.00241  -0.2015  0.4747  0.0646  -1.1960   0.0000   0.0000   0.0000   0.4518
   0.900   0.9944   0.01011   0.00247  -0.2014  0.4655  0.0736  -1.2074   0.0000   0.0000   0.0000   0.4494
   1.000   1.0065   0.01010   0.00252  -0.2017  0.4608  0.1029  -1.2201   0.0000   0.0000   0.0000   0.4471
   1.100   1.0178   0.01014   0.00257  -0.2018  0.4511  0.1175  -1.2321   0.0000   0.0000   0.0000   0.4448
   1.200   1.0278   0.01027   0.00266  -0.2017  0.4356  0.1441  -1.2434   0.0000   0.0000   0.0000   0.4426
   1.300   1.0389   0.01033   0.00273  -0.2018  0.4274  0.1665  -1.2557   0.0000   0.0000   0.0000   0.4405
   1.400   1.0505   0.01036   0.00279  -0.2020  0.4205  0.2027  -1.2704   0.0000   0.0000   0.0000   0.4384
   1.500   1.0625   0.01037   0.00286  -0.2024  0.4139  0.2480  -1.2853   0.0000   0.0000   0.0000   0.4364
   1.600   1.0752   0.01035   0.00295  -0.2029  0.4069  0.3119  -1.3009   0.0000   0.0000   0.0000   0.4345
   1.700   1.0894   0.01024   0.00306  -0.2038  0.4015  0.4049  -1.3176   0.0000   0.0000   0.0000   0.4328
   1.800   1.1021   0.01021   0.00317  -0.2043  0.3984  0.4587  -1.3333   0.0000   0.0000   0.0000   0.4309
   1.900   1.1137   0.01023   0.00327  -0.2044  0.3936  0.4899  -1.3483   0.0000   0.0000   0.0000   0.4290
   2.000   1.1241   0.01032   0.00335  -0.2043  0.3841  0.5035  -1.3623   0.0000   0.0000   0.0000   0.4270
   2.100   1.1333   0.01052   0.00349  -0.2040  0.3703  0.5109  -1.3754   0.0000   0.0000   0.0000   0.4251
   2.200   1.1434   0.01063   0.00358  -0.2039  0.3637  0.5162  -1.3893   0.0000   0.0000   0.0000   0.4232
   2.300   1.1536   0.01074   0.00369  -0.2037  0.3574  0.5237  -1.4031   0.0000   0.0000   0.0000   0.4214
   2.400   1.1634   0.01088   0.00378  -0.2035  0.3508  0.5278  -1.4168   0.0000   0.0000   0.0000   0.4196
   2.500   1.1732   0.01101   0.00388  -0.2032  0.3438  0.5313  -1.4324   0.0000   0.0000   0.0000   0.4178
   2.600   1.1836   0.01110   0.00396  -0.2031  0.3386  0.5356  -1.4495   0.0000   0.0000   0.0000   0.4160
   2.700   1.1945   0.01115   0.00402  -0.2031  0.3357  0.5415  -1.4672   0.0000   0.0000   0.0000   0.4143
   2.800   1.2052   0.01122   0.00410  -0.2030  0.3312  0.5474  -1.4847   0.0000   0.0000   0.0000   0.4126
   3.000   1.2232   0.01160   0.00437  -0.2023  0.3048  0.5586  -1.5203   0.0000   0.0000   0.0000   0.4092
   3.100   1.2325   0.01177   0.00448  -0.2020  0.2969  0.5638  -1.5403   0.0000   0.0000   0.0000   0.4076
   3.200   1.2419   0.01193   0.00460  -0.2017  0.2894  0.5715  -1.5606   0.0000   0.0000   0.0000   0.4060
   3.300   1.2514   0.01208   0.00474  -0.2014  0.2815  0.5807  -1.5810   0.0000   0.0000   0.0000   0.4044
   3.400   1.2617   0.01217   0.00484  -0.2013  0.2772  0.5895  -1.6024   0.0000   0.0000   0.0000   0.4028
   3.500   1.2719   0.01226   0.00493  -0.2011  0.2735  0.5965  -1.6237   0.0000   0.0000   0.0000   0.4012
   3.600   1.2820   0.01236   0.00503  -0.2009  0.2662  0.6050  -1.6449   0.0000   0.0000   0.0000   0.3997
   3.700   1.2895   0.01265   0.00524  -0.2003  0.2480  0.6122  -1.6634   0.0000   0.0000   0.0000   0.3982
   3.800   1.2985   0.01282   0.00539  -0.2000  0.2418  0.6187  -1.6857   0.0000   0.0000   0.0000   0.3967
   3.900   1.3073   0.01301   0.00553  -0.1996  0.2353  0.6238  -1.7157   0.0000   0.0000   0.0000   0.3952
   4.000   1.3162   0.01319   0.00569  -0.1992  0.2288  0.6272  -1.7460   0.0000   0.0000   0.0000   0.3937
   4.100   1.3256   0.01333   0.00581  -0.1989  0.2225  0.6313  -1.7772   0.0000   0.0000   0.0000   0.3923
   4.200   1.3359   0.01340   0.00590  -0.1988  0.2202  0.6368  -1.8101   0.0000   0.0000   0.0000   0.3909
   4.300   1.3460   0.01348   0.00600  -0.1986  0.2171  0.6413  -1.8427   0.0000   0.0000   0.0000   0.3895
   4.400   1.3555   0.01360   0.00612  -0.1983  0.2108  0.6455  -1.8747   0.0000   0.0000   0.0000   0.3881
   4.500   1.3625   0.01391   0.00634  -0.1976  0.1946  0.6492  -1.9026   0.0000   0.0000   0.0000   0.3867
   4.600   1.3711   0.01409   0.00649  -0.1972  0.1898  0.6528  -1.9333   0.0000   0.0000   0.0000   0.3853
   4.700   1.3796   0.01428   0.00664  -0.1968  0.1848  0.6561  -1.9640   0.0000   0.0000   0.0000   0.3840
   4.800   1.3881   0.01447   0.00679  -0.1963  0.1798  0.6588  -1.9947   0.0000   0.0000   0.0000   0.3826
   5.000   1.4062   0.01475   0.00704  -0.1956  0.1701  0.6657  -2.0585   0.0000   0.0000   0.0000   0.3800
   5.100   1.4159   0.01484   0.00715  -0.1954  0.1679  0.6695  -2.0916   0.0000   0.0000   0.0000   0.3788
   5.200   1.4248   0.01498   0.00730  -0.1950  0.1615  0.6731  -2.1236   0.0000   0.0000   0.0000   0.3775
   5.300   1.4297   0.01540   0.00761  -0.1940  0.1433  0.6765  -2.1489   0.0000   0.0000   0.0000   0.3761
   5.400   1.4358   0.01571   0.00785  -0.1932  0.1352  0.6800  -2.1763   0.0000   0.0000   0.0000   0.3748
   5.500   1.4425   0.01599   0.00807  -0.1924  0.1256  0.6835  -2.2047   0.0000   0.0000   0.0000   0.3735
   5.600   1.4510   0.01613   0.00822  -0.1920  0.1215  0.6870  -2.2366   0.0000   0.0000   0.0000   0.3723
   5.700   1.4580   0.01636   0.00841  -0.1913  0.1110  0.6900  -2.2660   0.0000   0.0000   0.0000   0.3710
   5.800   1.4610   0.01677   0.00874  -0.1899  0.0995  0.6934  -2.2887   0.0000   0.0000   0.0000   0.3697
   5.900   1.4658   0.01706   0.00899  -0.1888  0.0943  0.6978  -2.3145   0.0000   0.0000   0.0000   0.3683
   6.000   1.4720   0.01730   0.00920  -0.1880  0.0883  0.7024  -2.3425   0.0000   0.0000   0.0000   0.3671
   6.100   1.4793   0.01747   0.00939  -0.1873  0.0843  0.7070  -2.3725   0.0000   0.0000   0.0000   0.3658
   6.200   1.4873   0.01761   0.00954  -0.1868  0.0834  0.7118  -2.4043   0.0000   0.0000   0.0000   0.3646
   6.300   1.4950   0.01776   0.00974  -0.1862  0.0812  0.7164  -2.4356   0.0000   0.0000   0.0000   0.3634
   6.400   1.5023   0.01793   0.00992  -0.1856  0.0782  0.7207  -2.4665   0.0000   0.0000   0.0000   0.3623
   6.500   1.5083   0.01819   0.01018  -0.1847  0.0698  0.7263  -2.4952   0.0000   0.0000   0.0000   0.3610
   6.600   1.5139   0.01846   0.01043  -0.1838  0.0659  0.7321  -2.5234   0.0000   0.0000   0.0000   0.3598
   6.700   1.5201   0.01870   0.01066  -0.1830  0.0644  0.7382  -2.5526   0.0000   0.0000   0.0000   0.3587
   6.800   1.5260   0.01895   0.01090  -0.1822  0.0628  0.7444  -2.5812   0.0000   0.0000   0.0000   0.3575
   6.900   1.5316   0.01922   0.01115  -0.1813  0.0609  0.7500  -2.6094   0.0000   0.0000   0.0000   0.3563
   7.000   1.5376   0.01947   0.01141  -0.1805  0.0587  0.7570  -2.6380   0.0000   0.0000   0.0000   0.3551
   7.100   1.5440   0.01970   0.01166  -0.1797  0.0567  0.7643  -2.6673   0.0000   0.0000   0.0000   0.3540
   7.200   1.5506   0.01992   0.01189  -0.1790  0.0549  0.7718  -2.6970   0.0000   0.0000   0.0000   0.3529
   7.400   1.5640   0.02035   0.01237  -0.1777  0.0521  0.7877  -2.7568   0.0000   0.0000   0.0000   0.3507
   7.500   1.5711   0.02054   0.01259  -0.1771  0.0516  0.7969  -2.7896   0.0000   0.0000   0.0000   0.3496
   7.700   1.5850   0.02093   0.01306  -0.1759  0.0509  0.8162  -2.8569   0.0000   0.0000   0.0000   0.3475
   7.800   1.5917   0.02114   0.01331  -0.1752  0.0504  0.8277  -2.8899   0.0000   0.0000   0.0000   0.3465
   7.900   1.5981   0.02135   0.01356  -0.1745  0.0499  0.8410  -2.9223   0.0000   0.0000   0.0000   0.3454
   8.000   1.6041   0.02156   0.01383  -0.1738  0.0493  0.8578  -2.9541   0.0000   0.0000   0.0000   0.3444
   8.100   1.6090   0.02174   0.01408  -0.1727  0.0486  0.8857  -2.9836   0.0000   0.0000   0.0000   0.3432
   8.200   1.6075   0.02184   0.01426  -0.1705  0.0481  1.0000  -3.0010   0.0000   0.0000   0.0000   0.3418
   8.300   1.6136   0.02213   0.01456  -0.1698  0.0472  1.0000  -3.0331   0.0000   0.0000   0.0000   0.3408
   8.400   1.6195   0.02244   0.01488  -0.1691  0.0461  1.0000  -3.0651   0.0000   0.0000   0.0000   0.3398
   8.500   1.6249   0.02278   0.01522  -0.1684  0.0450  1.0000  -3.0965   0.0000   0.0000   0.0000   0.3388
   8.600   1.6299   0.02315   0.01558  -0.1676  0.0437  1.0000  -3.1275   0.0000   0.0000   0.0000   0.3378
   8.700   1.6347   0.02355   0.01597  -0.1668  0.0422  1.0000  -3.1581   0.0000   0.0000   0.0000   0.3369
   8.800   1.6392   0.02396   0.01638  -0.1660  0.0406  1.0000  -3.1882   0.0000   0.0000   0.0000   0.3359
   8.900   1.6469   0.02416   0.01665  -0.1656  0.0420  1.0000  -3.2204   0.0000   0.0000   0.0000   0.3350
   9.000   1.6522   0.02453   0.01702  -0.1649  0.0414  1.0000  -3.2509   0.0000   0.0000   0.0000   0.3341
   9.100   1.6570   0.02493   0.01743  -0.1642  0.0402  1.0000  -3.2811   0.0000   0.0000   0.0000   0.3332
   9.200   1.6618   0.02534   0.01784  -0.1634  0.0388  1.0000  -3.3111   0.0000   0.0000   0.0000   0.3323
   9.300   1.6672   0.02572   0.01822  -0.1628  0.0380  1.0000  -3.3437   0.0000   0.0000   0.0000   0.3314
   9.400   1.6727   0.02608   0.01859  -0.1622  0.0374  1.0000  -3.3785   0.0000   0.0000   0.0000   0.3305
   9.500   1.6780   0.02646   0.01897  -0.1616  0.0365  1.0000  -3.4133   0.0000   0.0000   0.0000   0.3296
   9.600   1.6827   0.02688   0.01939  -0.1609  0.0349  1.0000  -3.4480   0.0000   0.0000   0.0000   0.3288
   9.700   1.6858   0.02743   0.01992  -0.1600  0.0314  1.0000  -3.4823   0.0000   0.0000   0.0000   0.3279
   9.800   1.6822   0.02850   0.02090  -0.1585  0.0240  1.0000  -3.5103   0.0000   0.0000   0.0000   0.3270
   9.900   1.6815   0.02938   0.02173  -0.1573  0.0191  1.0000  -3.5067   0.0000   0.0000   0.0000   0.3261
  10.000   1.6843   0.02999   0.02234  -0.1565  0.0160  1.0000  -3.5214   0.0000   0.0000   0.0000   0.3253
  10.200   1.6780   0.03229   0.02464  -0.1537  0.0043  1.0000  -3.5542   0.0000   0.0000   0.0000   0.3236
  10.300   1.6805   0.03298   0.02535  -0.1530  0.0040  1.0000  -3.5922   0.0000   0.0000   0.0000   0.3228
  10.400   1.6837   0.03363   0.02601  -0.1523  0.0037  1.0000  -3.6340   0.0000   0.0000   0.0000   0.3220
  10.500   1.6874   0.03423   0.02662  -0.1517  0.0034  1.0000  -3.6699   0.0000   0.0000   0.0000   0.3213
  10.600   1.6909   0.03486   0.02728  -0.1511  0.0032  1.0000  -3.6995   0.0000   0.0000   0.0000   0.3205
  10.700   1.6942   0.03551   0.02795  -0.1505  0.0030  1.0000  -3.7296   0.0000   0.0000   0.0000   0.3198
  10.800   1.6978   0.03614   0.02861  -0.1499  0.0029  1.0000  -3.7613   0.0000   0.0000   0.0000   0.3191
  10.900   1.7015   0.03676   0.02926  -0.1493  0.0028  1.0000  -3.7942   0.0000   0.0000   0.0000   0.3183
  11.000   1.7048   0.03742   0.02995  -0.1488  0.0027  1.0000  -3.8267   0.0000   0.0000   0.0000   0.3176
  11.100   1.7078   0.03811   0.03067  -0.1482  0.0027  1.0000  -3.8591   0.0000   0.0000   0.0000   0.3169
  11.200   1.7110   0.03880   0.03138  -0.1477  0.0026  1.0000  -3.8921   0.0000   0.0000   0.0000   0.3162
  11.300   1.7144   0.03947   0.03208  -0.1471  0.0026  1.0000  -3.9258   0.0000   0.0000   0.0000   0.3155
  11.400   1.7178   0.04014   0.03278  -0.1466  0.0026  1.0000  -3.9598   0.0000   0.0000   0.0000   0.3149
  11.500   1.7210   0.04083   0.03350  -0.1461  0.0025  1.0000  -3.9936   0.0000   0.0000   0.0000   0.3142
  11.600   1.7237   0.04159   0.03429  -0.1456  0.0025  1.0000  -4.0260   0.0000   0.0000   0.0000   0.3135
  11.700   1.7262   0.04236   0.03510  -0.1450  0.0025  1.0000  -4.0580   0.0000   0.0000   0.0000   0.3129
  11.800   1.7288   0.04312   0.03592  -0.1445  0.0025  1.0000  -4.0894   0.0000   0.0000   0.0000   0.3122
  11.900   1.7314   0.04387   0.03670  -0.1440  0.0025  1.0000  -4.1218   0.0000   0.0000   0.0000   0.3116
  12.000   1.7341   0.04463   0.03750  -0.1435  0.0025  1.0000  -4.1543   0.0000   0.0000   0.0000   0.3110
  12.100   1.7361   0.04548   0.03838  -0.1430  0.0025  1.0000  -4.1850   0.0000   0.0000   0.0000   0.3104
  12.200   1.7379   0.04636   0.03930  -0.1425  0.0025  1.0000  -4.2152   0.0000   0.0000   0.0000   0.3098
  12.300   1.7399   0.04723   0.04020  -0.1420  0.0025  1.0000  -4.2546   0.0000   0.0000   0.0000   0.3092
  12.400   1.7422   0.04807   0.04108  -0.1416  0.0025  1.0000  -4.3147   0.0000   0.0000   0.0000   0.3086
  12.500   1.7445   0.04892   0.04197  -0.1411  0.0025  1.0000  -4.3753   0.0000   0.0000   0.0000   0.3080
  12.600   1.7469   0.04978   0.04286  -0.1407  0.0025  1.0000  -4.4361   0.0000   0.0000   0.0000   0.3074
  12.700   1.7485   0.05074   0.04386  -0.1403  0.0025  1.0000  -4.4938   0.0000   0.0000   0.0000   0.3069
  12.800   1.7497   0.05176   0.04491  -0.1399  0.0025  1.0000  -4.5494   0.0000   0.0000   0.0000   0.3064
  12.900   1.7512   0.05275   0.04595  -0.1395  0.0025  1.0000  -4.6065   0.0000   0.0000   0.0000   0.3059
  13.000   1.7529   0.05372   0.04696  -0.1391  0.0025  1.0000  -4.6649   0.0000   0.0000   0.0000   0.3053
  13.100   1.7546   0.05470   0.04797  -0.1387  0.0025  1.0000  -4.7238   0.0000   0.0000   0.0000   0.3048
  13.200   1.7562   0.05570   0.04901  -0.1383  0.0025  1.0000  -4.7820   0.0000   0.0000   0.0000   0.3043
  13.300   1.7568   0.05683   0.05019  -0.1380  0.0025  1.0000  -4.8354   0.0000   0.0000   0.0000   0.3039
  13.400   1.7574   0.05798   0.05138  -0.1377  0.0025  1.0000  -4.8887   0.0000   0.0000   0.0000   0.3034
  13.500   1.7584   0.05908   0.05252  -0.1374  0.0026  1.0000  -4.9440   0.0000   0.0000   0.0000   0.3030
  13.600   1.7595   0.06017   0.05364  -0.1371  0.0026  1.0000  -5.0004   0.0000   0.0000   0.0000   0.3025
  13.700   1.7607   0.06125   0.05477  -0.1368  0.0026  1.0000  -5.0569   0.0000   0.0000   0.0000   0.3021
  13.800   1.7618   0.06235   0.05590  -0.1365  0.0026  1.0000  -5.1128   0.0000   0.0000   0.0000   0.3016
  13.900   1.7620   0.06358   0.05718  -0.1362  0.0026  1.0000  -5.1643   0.0000   0.0000   0.0000   0.3012
  14.000   1.7617   0.06490   0.05855  -0.1360  0.0026  1.0000  -5.2128   0.0000   0.0000   0.0000   0.3009
  14.100   1.7618   0.06616   0.05985  -0.1358  0.0027  1.0000  -5.2636   0.0000   0.0000   0.0000   0.3005
  14.200   1.7623   0.06737   0.06110  -0.1356  0.0027  1.0000  -5.3159   0.0000   0.0000   0.0000   0.3001
  14.300   1.7628   0.06858   0.06236  -0.1354  0.0027  1.0000  -5.3685   0.0000   0.0000   0.0000   0.2998
  14.400   1.7631   0.06983   0.06364  -0.1352  0.0027  1.0000  -5.4197   0.0000   0.0000   0.0000   0.2994
  14.500   1.7620   0.07129   0.06515  -0.1351  0.0027  1.0000  -5.4635   0.0000   0.0000   0.0000   0.2991
  14.600   1.7613   0.07271   0.06661  -0.1350  0.0027  1.0000  -5.5087   0.0000   0.0000   0.0000   0.2988
  14.700   1.7612   0.07404   0.06799  -0.1348  0.0028  1.0000  -5.5565   0.0000   0.0000   0.0000   0.2985
  14.800   1.7612   0.07535   0.06934  -0.1347  0.0028  1.0000  -5.6052   0.0000   0.0000   0.0000   0.2982
  14.900   1.7612   0.07665   0.07068  -0.1346  0.0028  1.0000  -5.6535   0.0000   0.0000   0.0000   0.2979
  15.000   1.7611   0.07797   0.07204  -0.1345  0.0028  1.0000  -5.7009   0.0000   0.0000   0.0000   0.2976
  15.100   1.7596   0.07950   0.07361  -0.1345  0.0029  1.0000  -5.7399   0.0000   0.0000   0.0000   0.2974
  15.200   1.7577   0.08109   0.07524  -0.1345  0.0029  1.0000  -5.7766   0.0000   0.0000   0.0000   0.2972
  15.300   1.7566   0.08255   0.07677  -0.1344  0.0029  1.0000  -5.8201   0.0000   0.0000   0.0000   0.2970
  15.400   1.7558   0.08400   0.07826  -0.1344  0.0029  1.0000  -5.8627   0.0000   0.0000   0.0000   0.2968
  15.500   1.7550   0.08546   0.07976  -0.1344  0.0030  1.0000  -5.9047   0.0000   0.0000   0.0000   0.2966
  15.600   1.7532   0.08708   0.08143  -0.1345  0.0030  1.0000  -5.9413   0.0000   0.0000   0.0000   0.2965
  15.700   1.7506   0.08887   0.08326  -0.1346  0.0030  1.0000  -5.9724   0.0000   0.0000   0.0000   0.2964
  15.800   1.7491   0.09050   0.08494  -0.1348  0.0031  1.0000  -6.0094   0.0000   0.0000   0.0000   0.2963
  15.900   1.7480   0.09207   0.08654  -0.1349  0.0031  1.0000  -6.0484   0.0000   0.0000   0.0000   0.2962
  16.000   1.7469   0.09362   0.08813  -0.1350  0.0031  1.0000  -6.0876   0.0000   0.0000   0.0000   0.2960
  16.100   1.7458   0.09518   0.08974  -0.1351  0.0032  1.0000  -6.1263   0.0000   0.0000   0.0000   0.2959
  16.200   1.7438   0.09693   0.09153  -0.1354  0.0032  1.0000  -6.1594   0.0000   0.0000   0.0000   0.2959
  16.300   1.7409   0.09885   0.09350  -0.1357  0.0032  1.0000  -6.1870   0.0000   0.0000   0.0000   0.2959
  16.400   1.7389   0.10062   0.09531  -0.1360  0.0032  1.0000  -6.2193   0.0000   0.0000   0.0000   0.2959
  16.500   1.7372   0.10231   0.09705  -0.1363  0.0033  1.0000  -6.2536   0.0000   0.0000   0.0000   0.2959
  16.600   1.7356   0.10400   0.09878  -0.1365  0.0033  1.0000  -6.2878   0.0000   0.0000   0.0000   0.2959
  16.700   1.7332   0.10584   0.10067  -0.1369  0.0034  1.0000  -6.3173   0.0000   0.0000   0.0000   0.2959
  16.800   1.7298   0.10791   0.10279  -0.1374  0.0034  1.0000  -6.3396   0.0000   0.0000   0.0000   0.2961
  16.900   1.7274   0.10975   0.10469  -0.1378  0.0034  1.0000  -6.3686   0.0000   0.0000   0.0000   0.2962
  17.000   1.7256   0.11150   0.10648  -0.1382  0.0035  1.0000  -6.4002   0.0000   0.0000   0.0000   0.2962
  17.100   1.7239   0.11323   0.10825  -0.1386  0.0035  1.0000  -6.4323   0.0000   0.0000   0.0000   0.2963
  17.200   1.7221   0.11497   0.11005  -0.1390  0.0035  1.0000  -6.4638   0.0000   0.0000   0.0000   0.2964
  17.300   1.7191   0.11696   0.11209  -0.1396  0.0036  1.0000  -6.4870   0.0000   0.0000   0.0000   0.2966
  17.400   1.7154   0.11909   0.11427  -0.1403  0.0036  1.0000  -6.5055   0.0000   0.0000   0.0000   0.2969
  17.500   1.7128   0.12099   0.11623  -0.1408  0.0037  1.0000  -6.5304   0.0000   0.0000   0.0000   0.2971
  17.600   1.7108   0.12281   0.11810  -0.1414  0.0037  1.0000  -6.5578   0.0000   0.0000   0.0000   0.2972
  17.700   1.7087   0.12463   0.11998  -0.1420  0.0037  1.0000  -6.5849   0.0000   0.0000   0.0000   0.2974
  17.800   1.7049   0.12679   0.12219  -0.1427  0.0038  1.0000  -6.6006   0.0000   0.0000   0.0000   0.2978
  17.900   1.7012   0.12894   0.12440  -0.1435  0.0038  1.0000  -6.6158   0.0000   0.0000   0.0000   0.2982
  18.000   1.6987   0.13086   0.12637  -0.1442  0.0038  1.0000  -6.6382   0.0000   0.0000   0.0000   0.2984
  18.100   1.6966   0.13270   0.12826  -0.1449  0.0039  1.0000  -6.6627   0.0000   0.0000   0.0000   0.2986
  18.200   1.6944   0.13454   0.13016  -0.1456  0.0039  1.0000  -6.6861   0.0000   0.0000   0.0000   0.2989
  18.300   1.6920   0.13643   0.13211  -0.1463  0.0040  1.0000  -6.7071   0.0000   0.0000   0.0000   0.2992
  18.400   1.6876   0.13874   0.13448  -0.1473  0.0040  1.0000  -6.7142   0.0000   0.0000   0.0000   0.2997
  18.500   1.6836   0.14097   0.13677  -0.1483  0.0040  1.0000  -6.7231   0.0000   0.0000   0.0000   0.3003
  18.600   1.6806   0.14300   0.13886  -0.1491  0.0041  1.0000  -6.7376   0.0000   0.0000   0.0000   0.3007
  18.700   1.6778   0.14500   0.14091  -0.1500  0.0041  1.0000  -6.7522   0.0000   0.0000   0.0000   0.3011
  18.800   1.6746   0.14707   0.14304  -0.1509  0.0042  1.0000  -6.7632   0.0000   0.0000   0.0000   0.3015
  18.900   1.6694   0.14949   0.14553  -0.1522  0.0042  1.0000  -6.7601   0.0000   0.0000   0.0000   0.3023
  19.000   1.6660   0.15152   0.14762  -0.1533  0.0042  1.0000  -6.7661   0.0000   0.0000   0.0000   0.3029
  19.100   1.6630   0.15340   0.14956  -0.1543  0.0043  1.0000  -6.7740   0.0000   0.0000   0.0000   0.3034
  19.200   1.6600   0.15530   0.15152  -0.1553  0.0043  1.0000  -6.7791   0.0000   0.0000   0.0000   0.3039
  19.300   1.6565   0.15729   0.15358  -0.1564  0.0044  1.0000  -6.7785   0.0000   0.0000   0.0000   0.3045
  19.400   1.6520   0.15953   0.15588  -0.1577  0.0044  1.0000  -6.7680   0.0000   0.0000   0.0000   0.3053
  19.500   1.6458   0.16222   0.15865  -0.1593  0.0044  1.0000  -6.7434   0.0000   0.0000   0.0000   0.3063
  19.600   1.6346   0.16580   0.16236  -0.1613  0.0046  1.0000  -6.6353   0.0000   0.0000   0.0000   0.3080
  19.700   1.6339   0.16747   0.16406  -0.1622  0.0047  1.0000  -6.6690   0.0000   0.0000   0.0000   0.3083
  19.800   1.6330   0.16918   0.16580  -0.1632  0.0048  1.0000  -6.7014   0.0000   0.0000   0.0000   0.3087
  19.900   1.6308   0.17121   0.16787  -0.1643  0.0048  1.0000  -6.7216   0.0000   0.0000   0.0000   0.3093
  20.000   1.6281   0.17339   0.17009  -0.1656  0.0048  1.0000  -6.7364   0.0000   0.0000   0.0000   0.3100


