xflr5 v6.59

 Calculated polar for: WORTMANN FX 63-137 AIRFOIL

 1 1 Reynolds number fixed          Mach number fixed         

 xtrf =   1.000 (top)        1.000 (bottom)
 Mach =   0.000     Re =     2.100 e 6     Ncrit =   9.000

  alpha     CL        CD       CDp       Cm    Top Xtr Bot Xtr   Cpmin    Chinge    XCp    
 ------- -------- --------- --------- -------- ------- ------- -------- --------- ---------
   0.000   0.8941   0.01024   0.00264  -0.2028  0.1875  0.0195  -1.1210   0.0000   0.0000   0.0000   0.4750
   0.100   0.9051   0.01031   0.00268  -0.2028  0.1841  0.0194  -1.1320   0.0000   0.0000   0.0000   0.4720
   0.200   0.9161   0.01036   0.00272  -0.2027  0.1810  0.0193  -1.1428   0.0000   0.0000   0.0000   0.4692
   0.300   0.9272   0.01041   0.00275  -0.2027  0.1775  0.0193  -1.1535   0.0000   0.0000   0.0000   0.4664
   0.400   0.9383   0.01045   0.00278  -0.2027  0.1738  0.0192  -1.1642   0.0000   0.0000   0.0000   0.4636
   0.500   0.9495   0.01049   0.00282  -0.2027  0.1709  0.0192  -1.1747   0.0000   0.0000   0.0000   0.4609
   0.600   0.9608   0.01052   0.00285  -0.2028  0.1699  0.0192  -1.1851   0.0000   0.0000   0.0000   0.4583
   0.700   0.9721   0.01055   0.00288  -0.2028  0.1693  0.0193  -1.1956   0.0000   0.0000   0.0000   0.4558
   0.800   0.9833   0.01058   0.00291  -0.2028  0.1686  0.0195  -1.2060   0.0000   0.0000   0.0000   0.4532
   0.900   0.9945   0.01061   0.00295  -0.2028  0.1677  0.0199  -1.2164   0.0000   0.0000   0.0000   0.4508
   1.000   1.0056   0.01065   0.00299  -0.2028  0.1670  0.0258  -1.2268   0.0000   0.0000   0.0000   0.4484
   1.100   1.0171   0.01067   0.00306  -0.2029  0.1654  0.0351  -1.2403   0.0000   0.0000   0.0000   0.4460
   1.200   1.0283   0.01070   0.00310  -0.2029  0.1641  0.0367  -1.2554   0.0000   0.0000   0.0000   0.4438
   1.300   1.0374   0.01092   0.00324  -0.2026  0.1461  0.0375  -1.2738   0.0000   0.0000   0.0000   0.4415
   1.400   1.0482   0.01098   0.00328  -0.2025  0.1437  0.0380  -1.2873   0.0000   0.0000   0.0000   0.4393
   1.500   1.0589   0.01105   0.00333  -0.2024  0.1414  0.0383  -1.3001   0.0000   0.0000   0.0000   0.4372
   1.600   1.0696   0.01112   0.00339  -0.2024  0.1390  0.0393  -1.3120   0.0000   0.0000   0.0000   0.4351
   1.700   1.0803   0.01119   0.00345  -0.2023  0.1366  0.0409  -1.3233   0.0000   0.0000   0.0000   0.4330
   1.800   1.0910   0.01125   0.00350  -0.2022  0.1341  0.0428  -1.3350   0.0000   0.0000   0.0000   0.4309
   1.900   1.1018   0.01131   0.00355  -0.2022  0.1313  0.0453  -1.3474   0.0000   0.0000   0.0000   0.4289
   2.000   1.1126   0.01137   0.00360  -0.2021  0.1283  0.0477  -1.3607   0.0000   0.0000   0.0000   0.4270
   2.100   1.1235   0.01142   0.00366  -0.2021  0.1257  0.0500  -1.3745   0.0000   0.0000   0.0000   0.4250
   2.200   1.1349   0.01145   0.00371  -0.2022  0.1241  0.0628  -1.3892   0.0000   0.0000   0.0000   0.4232
   2.300   1.1460   0.01148   0.00377  -0.2022  0.1237  0.0772  -1.4065   0.0000   0.0000   0.0000   0.4213
   2.400   1.1578   0.01149   0.00382  -0.2024  0.1232  0.1022  -1.4253   0.0000   0.0000   0.0000   0.4195
   2.500   1.1700   0.01148   0.00388  -0.2027  0.1225  0.1428  -1.4446   0.0000   0.0000   0.0000   0.4178
   2.600   1.1814   0.01150   0.00393  -0.2028  0.1217  0.1621  -1.4634   0.0000   0.0000   0.0000   0.4161
   2.700   1.1934   0.01151   0.00399  -0.2030  0.1207  0.1921  -1.4828   0.0000   0.0000   0.0000   0.4145
   2.800   1.2041   0.01157   0.00405  -0.2030  0.1183  0.1985  -1.5020   0.0000   0.0000   0.0000   0.4128
   2.900   1.2129   0.01181   0.00424  -0.2026  0.1018  0.2159  -1.5224   0.0000   0.0000   0.0000   0.4111
   3.000   1.2237   0.01190   0.00434  -0.2027  0.0977  0.2469  -1.5390   0.0000   0.0000   0.0000   0.4095
   3.100   1.2340   0.01200   0.00444  -0.2026  0.0929  0.2620  -1.5605   0.0000   0.0000   0.0000   0.4079
   3.200   1.2459   0.01204   0.00454  -0.2029  0.0872  0.3038  -1.5834   0.0000   0.0000   0.0000   0.4065
   3.300   1.2565   0.01210   0.00461  -0.2028  0.0843  0.3128  -1.6060   0.0000   0.0000   0.0000   0.4049
   3.400   1.2680   0.01213   0.00470  -0.2030  0.0835  0.3368  -1.6315   0.0000   0.0000   0.0000   0.4034
   3.500   1.2795   0.01216   0.00478  -0.2032  0.0824  0.3669  -1.6567   0.0000   0.0000   0.0000   0.4020
   3.600   1.2902   0.01223   0.00486  -0.2031  0.0809  0.3786  -1.6810   0.0000   0.0000   0.0000   0.4005
   3.800   1.3097   0.01251   0.00514  -0.2027  0.0662  0.4040  -1.7317   0.0000   0.0000   0.0000   0.3975
   3.900   1.3224   0.01240   0.00509  -0.2030  0.0790  0.4036  -1.7506   0.0000   0.0000   0.0000   0.3961
   4.000   1.3329   0.01249   0.00521  -0.2030  0.0734  0.4243  -1.7828   0.0000   0.0000   0.0000   0.3947
   4.100   1.3417   0.01269   0.00538  -0.2026  0.0657  0.4328  -1.8134   0.0000   0.0000   0.0000   0.3933
   4.200   1.3517   0.01280   0.00548  -0.2024  0.0639  0.4423  -1.8462   0.0000   0.0000   0.0000   0.3919
   4.300   1.3619   0.01289   0.00558  -0.2023  0.0622  0.4548  -1.8795   0.0000   0.0000   0.0000   0.3905
   4.400   1.3720   0.01299   0.00567  -0.2021  0.0604  0.4636  -1.9127   0.0000   0.0000   0.0000   0.3892
   4.500   1.3821   0.01309   0.00577  -0.2020  0.0585  0.4716  -1.9459   0.0000   0.0000   0.0000   0.3878
   4.600   1.3923   0.01317   0.00588  -0.2018  0.0564  0.4839  -1.9797   0.0000   0.0000   0.0000   0.3865
   4.700   1.4024   0.01326   0.00598  -0.2017  0.0546  0.4922  -2.0132   0.0000   0.0000   0.0000   0.3852
   4.800   1.4124   0.01335   0.00607  -0.2015  0.0532  0.4982  -2.0468   0.0000   0.0000   0.0000   0.3839
   4.900   1.4226   0.01343   0.00617  -0.2014  0.0518  0.5099  -2.0809   0.0000   0.0000   0.0000   0.3826
   5.000   1.4330   0.01351   0.00628  -0.2013  0.0515  0.5242  -2.1164   0.0000   0.0000   0.0000   0.3814
   5.100   1.4429   0.01360   0.00638  -0.2011  0.0512  0.5319  -2.1516   0.0000   0.0000   0.0000   0.3801
   5.200   1.4529   0.01369   0.00650  -0.2009  0.0506  0.5422  -2.1870   0.0000   0.0000   0.0000   0.3789
   5.300   1.4627   0.01379   0.00661  -0.2007  0.0498  0.5485  -2.2223   0.0000   0.0000   0.0000   0.3777
   5.400   1.4722   0.01390   0.00672  -0.2004  0.0486  0.5519  -2.2574   0.0000   0.0000   0.0000   0.3764
   5.500   1.4815   0.01402   0.00684  -0.2001  0.0472  0.5553  -2.2923   0.0000   0.0000   0.0000   0.3752
   5.600   1.4907   0.01415   0.00697  -0.1998  0.0458  0.5585  -2.3271   0.0000   0.0000   0.0000   0.3740
   5.700   1.4998   0.01428   0.00709  -0.1994  0.0444  0.5616  -2.3619   0.0000   0.0000   0.0000   0.3728
   5.800   1.5087   0.01441   0.00722  -0.1991  0.0429  0.5642  -2.3964   0.0000   0.0000   0.0000   0.3716
   5.900   1.5177   0.01455   0.00735  -0.1987  0.0412  0.5684  -2.4310   0.0000   0.0000   0.0000   0.3704
   6.000   1.5270   0.01468   0.00752  -0.1984  0.0383  0.5825  -2.4661   0.0000   0.0000   0.0000   0.3693
   6.100   1.5362   0.01479   0.00765  -0.1981  0.0374  0.5905  -2.5037   0.0000   0.0000   0.0000   0.3682
   6.200   1.5453   0.01491   0.00776  -0.1978  0.0368  0.5966  -2.5400   0.0000   0.0000   0.0000   0.3670
   6.300   1.5545   0.01502   0.00789  -0.1975  0.0362  0.6072  -2.5767   0.0000   0.0000   0.0000   0.3659
   6.400   1.5635   0.01514   0.00803  -0.1971  0.0352  0.6168  -2.6135   0.0000   0.0000   0.0000   0.3648
   6.500   1.5723   0.01527   0.00816  -0.1967  0.0343  0.6232  -2.6499   0.0000   0.0000   0.0000   0.3637
   6.600   1.5764   0.01566   0.00848  -0.1955  0.0253  0.6268  -2.6860   0.0000   0.0000   0.0000   0.3624
   6.700   1.5821   0.01589   0.00868  -0.1945  0.0224  0.6293  -2.7087   0.0000   0.0000   0.0000   0.3612
   6.800   1.5882   0.01609   0.00887  -0.1936  0.0196  0.6365  -2.7295   0.0000   0.0000   0.0000   0.3600
   6.900   1.5956   0.01623   0.00902  -0.1930  0.0171  0.6435  -2.7584   0.0000   0.0000   0.0000   0.3588
   7.000   1.6031   0.01637   0.00918  -0.1923  0.0164  0.6493  -2.7908   0.0000   0.0000   0.0000   0.3577
   7.100   1.6106   0.01651   0.00932  -0.1917  0.0161  0.6542  -2.8241   0.0000   0.0000   0.0000   0.3566
   7.200   1.6090   0.01713   0.00992  -0.1894  0.0055  0.6575  -2.8490   0.0000   0.0000   0.0000   0.3551
   7.300   1.6157   0.01731   0.01010  -0.1887  0.0044  0.6607  -2.8809   0.0000   0.0000   0.0000   0.3540
   7.400   1.6225   0.01750   0.01030  -0.1879  0.0042  0.6678  -2.9143   0.0000   0.0000   0.0000   0.3529
   7.500   1.6293   0.01769   0.01051  -0.1872  0.0040  0.6737  -2.9475   0.0000   0.0000   0.0000   0.3518
   7.600   1.6360   0.01788   0.01071  -0.1865  0.0038  0.6787  -2.9806   0.0000   0.0000   0.0000   0.3507
   7.700   1.6428   0.01806   0.01090  -0.1858  0.0036  0.6831  -3.0134   0.0000   0.0000   0.0000   0.3496
   7.800   1.6496   0.01825   0.01109  -0.1851  0.0034  0.6869  -3.0457   0.0000   0.0000   0.0000   0.3486
   7.900   1.6564   0.01843   0.01128  -0.1843  0.0032  0.6899  -3.0780   0.0000   0.0000   0.0000   0.3475
   8.000   1.6633   0.01862   0.01147  -0.1837  0.0029  0.6937  -3.1105   0.0000   0.0000   0.0000   0.3465
   8.100   1.6704   0.01880   0.01167  -0.1831  0.0026  0.6999  -3.1434   0.0000   0.0000   0.0000   0.3454
   8.200   1.6774   0.01899   0.01188  -0.1824  0.0023  0.7055  -3.1764   0.0000   0.0000   0.0000   0.3444
   8.300   1.6843   0.01918   0.01208  -0.1818  0.0020  0.7107  -3.2094   0.0000   0.0000   0.0000   0.3434
   8.400   1.6910   0.01939   0.01229  -0.1811  0.0016  0.7156  -3.2423   0.0000   0.0000   0.0000   0.3424
   8.500   1.6975   0.01961   0.01255  -0.1804  0.0020  0.7200  -3.2758   0.0000   0.0000   0.0000   0.3414
   8.600   1.7041   0.01982   0.01278  -0.1797  0.0017  0.7271  -3.3089   0.0000   0.0000   0.0000   0.3404
   9.100   1.7348   0.02107   0.01414  -0.1761  0.0013  0.7665  -3.4720   0.0000   0.0000   0.0000   0.3356
   9.200   1.7407   0.02135   0.01444  -0.1754  0.0013  0.7750  -3.5044   0.0000   0.0000   0.0000   0.3346
   9.300   1.7467   0.02162   0.01475  -0.1747  0.0013  0.7850  -3.5374   0.0000   0.0000   0.0000   0.3337
   9.400   1.7528   0.02191   0.01507  -0.1740  0.0013  0.7965  -3.5706   0.0000   0.0000   0.0000   0.3328
   9.500   1.7586   0.02221   0.01540  -0.1733  0.0013  0.8066  -3.6030   0.0000   0.0000   0.0000   0.3319
   9.600   1.7644   0.02251   0.01574  -0.1726  0.0013  0.8195  -3.6362   0.0000   0.0000   0.0000   0.3310
   9.700   1.7702   0.02282   0.01609  -0.1719  0.0013  0.8322  -3.6777   0.0000   0.0000   0.0000   0.3301
   9.800   1.7761   0.02314   0.01645  -0.1713  0.0013  0.8493  -3.7196   0.0000   0.0000   0.0000   0.3292
   9.900   1.7818   0.02346   0.01683  -0.1707  0.0013  0.8733  -3.7610   0.0000   0.0000   0.0000   0.3283
  10.200   1.7925   0.02438   0.01795  -0.1675  0.0013  1.0000  -3.8680   0.0000   0.0000   0.0000   0.3254
  10.300   1.7971   0.02479   0.01838  -0.1667  0.0013  1.0000  -3.9056   0.0000   0.0000   0.0000   0.3245
  10.400   1.8012   0.02522   0.01884  -0.1659  0.0013  1.0000  -3.9415   0.0000   0.0000   0.0000   0.3237
  10.500   1.8053   0.02567   0.01932  -0.1651  0.0013  1.0000  -3.9755   0.0000   0.0000   0.0000   0.3228
  11.500   1.8419   0.03094   0.02485  -0.1574  0.0018  1.0000  -4.3284   0.0000   0.0000   0.0000   0.3147
  11.600   1.8450   0.03156   0.02549  -0.1567  0.0019  1.0000  -4.3644   0.0000   0.0000   0.0000   0.3140
  11.700   1.8484   0.03217   0.02612  -0.1560  0.0020  1.0000  -4.4271   0.0000   0.0000   0.0000   0.3133
  11.800   1.8518   0.03277   0.02674  -0.1553  0.0021  1.0000  -4.4962   0.0000   0.0000   0.0000   0.3125
  11.900   1.8548   0.03343   0.02742  -0.1546  0.0021  1.0000  -4.5638   0.0000   0.0000   0.0000   0.3118
  12.000   1.8569   0.03416   0.02818  -0.1539  0.0022  1.0000  -4.6273   0.0000   0.0000   0.0000   0.3111
  12.100   1.8592   0.03489   0.02893  -0.1532  0.0024  1.0000  -4.6909   0.0000   0.0000   0.0000   0.3104
  12.200   1.8616   0.03562   0.02969  -0.1525  0.0025  1.0000  -4.7531   0.0000   0.0000   0.0000   0.3097
  12.300   1.8637   0.03638   0.03048  -0.1518  0.0027  1.0000  -4.8091   0.0000   0.0000   0.0000   0.3090


