xflr5 v6.59

 Calculated polar for: WORTMANN FX 63-137 AIRFOIL

 1 1 Reynolds number fixed          Mach number fixed         

 xtrf =   1.000 (top)        1.000 (bottom)
 Mach =   0.000     Re =     2.600 e 6     Ncrit =   9.000

  alpha     CL        CD       CDp       Cm    Top Xtr Bot Xtr   Cpmin    Chinge    XCp    
 ------- -------- --------- --------- -------- ------- ------- -------- --------- ---------
   0.000   0.8987   0.00999   0.00259  -0.2038  0.1678  0.0191  -1.1282   0.0000   0.0000   0.0000   0.4749
   0.100   0.9100   0.01002   0.00261  -0.2039  0.1669  0.0190  -1.1386   0.0000   0.0000   0.0000   0.4720
   0.200   0.9213   0.01005   0.00264  -0.2039  0.1654  0.0189  -1.1491   0.0000   0.0000   0.0000   0.4691
   0.300   0.9327   0.01008   0.00267  -0.2039  0.1647  0.0188  -1.1595   0.0000   0.0000   0.0000   0.4663
   0.400   0.9421   0.01027   0.00279  -0.2036  0.1461  0.0187  -1.1698   0.0000   0.0000   0.0000   0.4637
   0.500   0.9531   0.01032   0.00283  -0.2036  0.1440  0.0186  -1.1802   0.0000   0.0000   0.0000   0.4610
   0.600   0.9641   0.01037   0.00287  -0.2036  0.1418  0.0186  -1.1905   0.0000   0.0000   0.0000   0.4584
   0.700   0.9751   0.01043   0.00291  -0.2035  0.1397  0.0186  -1.2008   0.0000   0.0000   0.0000   0.4559
   0.800   0.9860   0.01049   0.00296  -0.2035  0.1376  0.0186  -1.2110   0.0000   0.0000   0.0000   0.4534
   0.900   0.9970   0.01054   0.00300  -0.2035  0.1354  0.0189  -1.2236   0.0000   0.0000   0.0000   0.4509
   1.000   1.0080   0.01059   0.00304  -0.2034  0.1338  0.0200  -1.2361   0.0000   0.0000   0.0000   0.4485
   1.100   1.0188   0.01064   0.00308  -0.2034  0.1314  0.0253  -1.2484   0.0000   0.0000   0.0000   0.4462
   1.200   1.0304   0.01066   0.00315  -0.2035  0.1289  0.0339  -1.2612   0.0000   0.0000   0.0000   0.4439
   1.300   1.0415   0.01070   0.00319  -0.2035  0.1265  0.0359  -1.2737   0.0000   0.0000   0.0000   0.4417
   1.400   1.0526   0.01074   0.00323  -0.2035  0.1245  0.0369  -1.2862   0.0000   0.0000   0.0000   0.4395
   1.500   1.0638   0.01078   0.00327  -0.2035  0.1239  0.0375  -1.2986   0.0000   0.0000   0.0000   0.4373
   1.600   1.0749   0.01081   0.00331  -0.2035  0.1235  0.0380  -1.3109   0.0000   0.0000   0.0000   0.4352
   1.700   1.0860   0.01085   0.00335  -0.2035  0.1231  0.0383  -1.3236   0.0000   0.0000   0.0000   0.4331
   1.800   1.0971   0.01089   0.00339  -0.2035  0.1226  0.0390  -1.3386   0.0000   0.0000   0.0000   0.4311
   1.900   1.1081   0.01093   0.00342  -0.2035  0.1221  0.0406  -1.3537   0.0000   0.0000   0.0000   0.4291
   2.000   1.1191   0.01097   0.00347  -0.2035  0.1213  0.0425  -1.3689   0.0000   0.0000   0.0000   0.4271
   2.100   1.1301   0.01102   0.00351  -0.2034  0.1203  0.0452  -1.3842   0.0000   0.0000   0.0000   0.4252
   2.200   1.1410   0.01107   0.00356  -0.2034  0.1187  0.0481  -1.3998   0.0000   0.0000   0.0000   0.4233
   2.300   1.1506   0.01124   0.00373  -0.2032  0.1049  0.0656  -1.4210   0.0000   0.0000   0.0000   0.4215
   2.400   1.1611   0.01132   0.00379  -0.2031  0.1021  0.0680  -1.4374   0.0000   0.0000   0.0000   0.4196
   2.500   1.1720   0.01138   0.00385  -0.2030  0.1007  0.0803  -1.4533   0.0000   0.0000   0.0000   0.4179
   2.600   1.1831   0.01144   0.00392  -0.2031  0.0986  0.1033  -1.4683   0.0000   0.0000   0.0000   0.4161
   2.700   1.1935   0.01154   0.00401  -0.2030  0.0943  0.1194  -1.4821   0.0000   0.0000   0.0000   0.4144
   2.800   1.2046   0.01159   0.00409  -0.2031  0.0883  0.1430  -1.5007   0.0000   0.0000   0.0000   0.4128
   2.900   1.2152   0.01166   0.00415  -0.2030  0.0843  0.1457  -1.5225   0.0000   0.0000   0.0000   0.4111
   3.000   1.2261   0.01171   0.00421  -0.2030  0.0837  0.1557  -1.5471   0.0000   0.0000   0.0000   0.4094
   3.100   1.2372   0.01176   0.00429  -0.2030  0.0828  0.1689  -1.5715   0.0000   0.0000   0.0000   0.4078
   3.200   1.2486   0.01179   0.00435  -0.2031  0.0813  0.1930  -1.5962   0.0000   0.0000   0.0000   0.4063
   3.300   1.2592   0.01186   0.00443  -0.2031  0.0789  0.2033  -1.6205   0.0000   0.0000   0.0000   0.4047
   3.400   1.2682   0.01207   0.00461  -0.2028  0.0656  0.2189  -1.6452   0.0000   0.0000   0.0000   0.4032
   3.500   1.2793   0.01213   0.00469  -0.2029  0.0635  0.2474  -1.6656   0.0000   0.0000   0.0000   0.4017
   3.600   1.2898   0.01222   0.00478  -0.2028  0.0615  0.2608  -1.6848   0.0000   0.0000   0.0000   0.4002
   3.700   1.3010   0.01227   0.00487  -0.2029  0.0595  0.2853  -1.7053   0.0000   0.0000   0.0000   0.3988
   3.800   1.3120   0.01232   0.00495  -0.2029  0.0575  0.3066  -1.7266   0.0000   0.0000   0.0000   0.3974
   3.900   1.3228   0.01236   0.00501  -0.2029  0.0602  0.3054  -1.7521   0.0000   0.0000   0.0000   0.3959
   4.000   1.3336   0.01242   0.00508  -0.2029  0.0592  0.3214  -1.7858   0.0000   0.0000   0.0000   0.3946
   4.100   1.3455   0.01244   0.00518  -0.2031  0.0576  0.3625  -1.8212   0.0000   0.0000   0.0000   0.3933
   4.200   1.3558   0.01252   0.00526  -0.2030  0.0558  0.3697  -1.8546   0.0000   0.0000   0.0000   0.3919
   4.300   1.3666   0.01258   0.00535  -0.2030  0.0541  0.3865  -1.8887   0.0000   0.0000   0.0000   0.3905
   4.400   1.3773   0.01264   0.00544  -0.2030  0.0528  0.4010  -1.9229   0.0000   0.0000   0.0000   0.3892
   4.600   1.3988   0.01276   0.00561  -0.2030  0.0515  0.4329  -1.9925   0.0000   0.0000   0.0000   0.3866
   4.700   1.4092   0.01283   0.00570  -0.2029  0.0513  0.4434  -2.0275   0.0000   0.0000   0.0000   0.3853
   4.800   1.4197   0.01290   0.00580  -0.2028  0.0508  0.4565  -2.0630   0.0000   0.0000   0.0000   0.3841
   4.900   1.4298   0.01298   0.00589  -0.2027  0.0500  0.4651  -2.0981   0.0000   0.0000   0.0000   0.3828
   5.000   1.4402   0.01307   0.00601  -0.2026  0.0487  0.4839  -2.1340   0.0000   0.0000   0.0000   0.3816
   5.100   1.4501   0.01317   0.00613  -0.2024  0.0469  0.4982  -2.1694   0.0000   0.0000   0.0000   0.3803
   5.200   1.4599   0.01329   0.00626  -0.2022  0.0449  0.5135  -2.2047   0.0000   0.0000   0.0000   0.3791
   5.300   1.4697   0.01340   0.00639  -0.2020  0.0433  0.5262  -2.2398   0.0000   0.0000   0.0000   0.3779
   5.400   1.4792   0.01352   0.00650  -0.2017  0.0417  0.5304  -2.2745   0.0000   0.0000   0.0000   0.3767
   5.500   1.4887   0.01363   0.00661  -0.2015  0.0401  0.5319  -2.3092   0.0000   0.0000   0.0000   0.3755
   5.600   1.4982   0.01373   0.00671  -0.2012  0.0387  0.5338  -2.3440   0.0000   0.0000   0.0000   0.3743
   5.700   1.5080   0.01383   0.00681  -0.2010  0.0381  0.5384  -2.3798   0.0000   0.0000   0.0000   0.3731
   5.800   1.5177   0.01392   0.00691  -0.2007  0.0379  0.5433  -2.4160   0.0000   0.0000   0.0000   0.3719
   5.900   1.5274   0.01401   0.00701  -0.2005  0.0376  0.5480  -2.4524   0.0000   0.0000   0.0000   0.3708
   6.000   1.5365   0.01415   0.00716  -0.2002  0.0359  0.5544  -2.4906   0.0000   0.0000   0.0000   0.3696
   6.100   1.5443   0.01435   0.00733  -0.1996  0.0314  0.5585  -2.5289   0.0000   0.0000   0.0000   0.3684
   6.200   1.5503   0.01468   0.00760  -0.1987  0.0235  0.5623  -2.5591   0.0000   0.0000   0.0000   0.3672
   6.300   1.5579   0.01490   0.00778  -0.1981  0.0199  0.5653  -2.5802   0.0000   0.0000   0.0000   0.3660
   6.400   1.5669   0.01502   0.00792  -0.1978  0.0171  0.5765  -2.6110   0.0000   0.0000   0.0000   0.3649
   6.500   1.5760   0.01514   0.00806  -0.1974  0.0164  0.5859  -2.6458   0.0000   0.0000   0.0000   0.3638
   6.700   1.5866   0.01580   0.00870  -0.1953  0.0045  0.5963  -2.7112   0.0000   0.0000   0.0000   0.3613
   6.800   1.5938   0.01594   0.00885  -0.1946  0.0043  0.6026  -2.7444   0.0000   0.0000   0.0000   0.3602
   6.900   1.6010   0.01608   0.00901  -0.1939  0.0042  0.6115  -2.7779   0.0000   0.0000   0.0000   0.3590
   7.000   1.6083   0.01623   0.00917  -0.1933  0.0040  0.6190  -2.8117   0.0000   0.0000   0.0000   0.3579
   7.100   1.6154   0.01638   0.00933  -0.1925  0.0038  0.6249  -2.8453   0.0000   0.0000   0.0000   0.3567
   7.200   1.6225   0.01653   0.00948  -0.1918  0.0037  0.6286  -2.8783   0.0000   0.0000   0.0000   0.3556
   7.300   1.6298   0.01668   0.00964  -0.1912  0.0035  0.6352  -2.9115   0.0000   0.0000   0.0000   0.3545
   7.400   1.6373   0.01682   0.00980  -0.1906  0.0033  0.6436  -2.9451   0.0000   0.0000   0.0000   0.3534
   7.500   1.6448   0.01697   0.00996  -0.1899  0.0031  0.6501  -2.9786   0.0000   0.0000   0.0000   0.3524
   7.600   1.6520   0.01712   0.01013  -0.1893  0.0029  0.6554  -3.0117   0.0000   0.0000   0.0000   0.3513
   7.700   1.6590   0.01728   0.01029  -0.1886  0.0026  0.6594  -3.0445   0.0000   0.0000   0.0000   0.3502
   8.000   1.6806   0.01777   0.01082  -0.1866  0.0019  0.6778  -3.1449   0.0000   0.0000   0.0000   0.3471
   8.100   1.6875   0.01795   0.01100  -0.1860  0.0017  0.6826  -3.1784   0.0000   0.0000   0.0000   0.3460
   8.200   1.6943   0.01813   0.01119  -0.1852  0.0014  0.6865  -3.2117   0.0000   0.0000   0.0000   0.3450
   8.300   1.7010   0.01832   0.01139  -0.1845  0.0014  0.6895  -3.2451   0.0000   0.0000   0.0000   0.3440
   8.700   1.7276   0.01914   0.01228  -0.1817  0.0013  0.7099  -3.3800   0.0000   0.0000   0.0000   0.3400
   8.800   1.7339   0.01936   0.01252  -0.1810  0.0013  0.7148  -3.4134   0.0000   0.0000   0.0000   0.3390
   8.900   1.7400   0.01959   0.01276  -0.1803  0.0013  0.7192  -3.4465   0.0000   0.0000   0.0000   0.3380
   9.000   1.7460   0.01983   0.01303  -0.1795  0.0013  0.7256  -3.4793   0.0000   0.0000   0.0000   0.3370
   9.100   1.7521   0.02008   0.01330  -0.1787  0.0013  0.7341  -3.5124   0.0000   0.0000   0.0000   0.3361
   9.200   1.7581   0.02033   0.01357  -0.1780  0.0013  0.7418  -3.5456   0.0000   0.0000   0.0000   0.3351
   9.300   1.7641   0.02060   0.01385  -0.1773  0.0013  0.7482  -3.5786   0.0000   0.0000   0.0000   0.3342
   9.400   1.7699   0.02087   0.01415  -0.1765  0.0013  0.7564  -3.6115   0.0000   0.0000   0.0000   0.3332
   9.500   1.7757   0.02115   0.01447  -0.1758  0.0013  0.7659  -3.6466   0.0000   0.0000   0.0000   0.3323
   9.600   1.7815   0.02144   0.01478  -0.1751  0.0013  0.7745  -3.6888   0.0000   0.0000   0.0000   0.3314
   9.700   1.7875   0.02173   0.01510  -0.1744  0.0013  0.7846  -3.7315   0.0000   0.0000   0.0000   0.3305
   9.800   1.7932   0.02203   0.01544  -0.1737  0.0013  0.7965  -3.7737   0.0000   0.0000   0.0000   0.3296
   9.900   1.7987   0.02235   0.01578  -0.1729  0.0013  0.8067  -3.8153   0.0000   0.0000   0.0000   0.3287
  10.000   1.8045   0.02267   0.01614  -0.1723  0.0013  0.8201  -3.8577   0.0000   0.0000   0.0000   0.3278
  10.100   1.8103   0.02299   0.01650  -0.1716  0.0013  0.8333  -3.9000   0.0000   0.0000   0.0000   0.3269
  10.200   1.8158   0.02333   0.01689  -0.1709  0.0013  0.8511  -3.9415   0.0000   0.0000   0.0000   0.3261
  10.300   1.8215   0.02367   0.01731  -0.1703  0.0013  0.8779  -3.9831   0.0000   0.0000   0.0000   0.3252
  10.500   1.8276   0.02426   0.01807  -0.1680  0.0013  1.0000  -4.0524   0.0000   0.0000   0.0000   0.3233
  10.600   1.8317   0.02469   0.01853  -0.1672  0.0013  1.0000  -4.0888   0.0000   0.0000   0.0000   0.3224
  10.700   1.8353   0.02516   0.01902  -0.1662  0.0013  1.0000  -4.1225   0.0000   0.0000   0.0000   0.3215


