xflr5 v6.59

 Calculated polar for: WORTMANN FX 63-137 AIRFOIL

 1 1 Reynolds number fixed          Mach number fixed         

 xtrf =   1.000 (top)        1.000 (bottom)
 Mach =   0.000     Re =     1.400 e 6     Ncrit =   9.000

  alpha     CL        CD       CDp       Cm    Top Xtr Bot Xtr   Cpmin    Chinge    XCp    
 ------- -------- --------- --------- -------- ------- ------- -------- --------- ---------
   0.000   0.8936   0.01005   0.00238  -0.2022  0.2971  0.0207  -1.1183   0.0000   0.0000   0.0000   0.4744
   0.100   0.9036   0.01018   0.00245  -0.2020  0.2866  0.0207  -1.1284   0.0000   0.0000   0.0000   0.4715
   0.200   0.9144   0.01025   0.00250  -0.2020  0.2781  0.0207  -1.1387   0.0000   0.0000   0.0000   0.4687
   0.300   0.9257   0.01029   0.00252  -0.2020  0.2751  0.0208  -1.1498   0.0000   0.0000   0.0000   0.4659
   0.400   0.9368   0.01033   0.00256  -0.2020  0.2714  0.0208  -1.1611   0.0000   0.0000   0.0000   0.4631
   0.500   0.9468   0.01046   0.00264  -0.2018  0.2571  0.0209  -1.1750   0.0000   0.0000   0.0000   0.4605
   0.600   0.9567   0.01061   0.00272  -0.2016  0.2465  0.0211  -1.1866   0.0000   0.0000   0.0000   0.4580
   0.700   0.9672   0.01069   0.00277  -0.2015  0.2417  0.0215  -1.1944   0.0000   0.0000   0.0000   0.4554
   0.800   0.9776   0.01079   0.00282  -0.2013  0.2370  0.0223  -1.1995   0.0000   0.0000   0.0000   0.4529
   0.900   0.9885   0.01086   0.00295  -0.2013  0.2320  0.0268  -1.2105   0.0000   0.0000   0.0000   0.4505
   1.000   0.9997   0.01091   0.00300  -0.2014  0.2274  0.0380  -1.2226   0.0000   0.0000   0.0000   0.4481
   1.100   1.0106   0.01096   0.00305  -0.2013  0.2227  0.0389  -1.2346   0.0000   0.0000   0.0000   0.4458
   1.200   1.0218   0.01099   0.00308  -0.2013  0.2213  0.0409  -1.2472   0.0000   0.0000   0.0000   0.4435
   1.300   1.0329   0.01103   0.00312  -0.2013  0.2200  0.0431  -1.2598   0.0000   0.0000   0.0000   0.4412
   1.400   1.0440   0.01107   0.00316  -0.2013  0.2181  0.0460  -1.2727   0.0000   0.0000   0.0000   0.4390
   1.500   1.0549   0.01112   0.00321  -0.2013  0.2149  0.0484  -1.2867   0.0000   0.0000   0.0000   0.4368
   1.600   1.0647   0.01127   0.00333  -0.2011  0.2015  0.0505  -1.3021   0.0000   0.0000   0.0000   0.4347
   1.700   1.0747   0.01140   0.00343  -0.2009  0.1928  0.0624  -1.3155   0.0000   0.0000   0.0000   0.4327
   1.800   1.0852   0.01149   0.00349  -0.2008  0.1890  0.0647  -1.3285   0.0000   0.0000   0.0000   0.4306
   1.900   1.0956   0.01158   0.00356  -0.2007  0.1853  0.0668  -1.3427   0.0000   0.0000   0.0000   0.4286
   2.000   1.1059   0.01167   0.00363  -0.2006  0.1816  0.0710  -1.3570   0.0000   0.0000   0.0000   0.4267
   2.100   1.1166   0.01175   0.00371  -0.2005  0.1772  0.0779  -1.3715   0.0000   0.0000   0.0000   0.4247
   2.200   1.1276   0.01180   0.00377  -0.2005  0.1727  0.0896  -1.3862   0.0000   0.0000   0.0000   0.4229
   2.300   1.1401   0.01178   0.00383  -0.2010  0.1701  0.1438  -1.4020   0.0000   0.0000   0.0000   0.4211
   2.400   1.1594   0.01145   0.00394  -0.2032  0.1690  0.3498  -1.4236   0.0000   0.0000   0.0000   0.4200
   2.500   1.1708   0.01148   0.00400  -0.2033  0.1677  0.3698  -1.4394   0.0000   0.0000   0.0000   0.4182
   2.600   1.1822   0.01151   0.00407  -0.2034  0.1660  0.3877  -1.4562   0.0000   0.0000   0.0000   0.4165
   2.700   1.1933   0.01156   0.00414  -0.2035  0.1630  0.4025  -1.4741   0.0000   0.0000   0.0000   0.4148
   2.800   1.2023   0.01178   0.00433  -0.2032  0.1462  0.4207  -1.4925   0.0000   0.0000   0.0000   0.4131
   2.900   1.2127   0.01187   0.00442  -0.2031  0.1432  0.4317  -1.5098   0.0000   0.0000   0.0000   0.4115
   3.000   1.2229   0.01197   0.00451  -0.2029  0.1402  0.4404  -1.5310   0.0000   0.0000   0.0000   0.4098
   3.100   1.2334   0.01207   0.00460  -0.2029  0.1372  0.4522  -1.5524   0.0000   0.0000   0.0000   0.4082
   3.200   1.2436   0.01217   0.00470  -0.2027  0.1340  0.4612  -1.5737   0.0000   0.0000   0.0000   0.4066
   3.300   1.2539   0.01226   0.00478  -0.2026  0.1305  0.4675  -1.5950   0.0000   0.0000   0.0000   0.4050
   3.400   1.2644   0.01234   0.00488  -0.2025  0.1261  0.4778  -1.6166   0.0000   0.0000   0.0000   0.4035
   3.500   1.2750   0.01241   0.00497  -0.2024  0.1235  0.4867  -1.6385   0.0000   0.0000   0.0000   0.4019
   3.600   1.2853   0.01249   0.00505  -0.2023  0.1216  0.4930  -1.6603   0.0000   0.0000   0.0000   0.4004
   3.700   1.2952   0.01260   0.00515  -0.2021  0.1170  0.4971  -1.6818   0.0000   0.0000   0.0000   0.3989
   3.800   1.3023   0.01293   0.00538  -0.2014  0.1004  0.4995  -1.7010   0.0000   0.0000   0.0000   0.3974
   3.900   1.3112   0.01312   0.00551  -0.2010  0.0955  0.5032  -1.7278   0.0000   0.0000   0.0000   0.3959
   4.000   1.3237   0.01302   0.00552  -0.2013  0.1017  0.5060  -1.7642   0.0000   0.0000   0.0000   0.3945
   4.100   1.3332   0.01317   0.00565  -0.2010  0.0986  0.5124  -1.7956   0.0000   0.0000   0.0000   0.3930
   4.200   1.3424   0.01332   0.00577  -0.2007  0.0947  0.5181  -1.8269   0.0000   0.0000   0.0000   0.3916
   4.300   1.3519   0.01346   0.00589  -0.2004  0.0897  0.5237  -1.8587   0.0000   0.0000   0.0000   0.3902
   4.400   1.3616   0.01357   0.00600  -0.2002  0.0853  0.5297  -1.8910   0.0000   0.0000   0.0000   0.3888
   4.500   1.3717   0.01366   0.00611  -0.2000  0.0839  0.5375  -1.9244   0.0000   0.0000   0.0000   0.3875
   4.600   1.3820   0.01374   0.00622  -0.1999  0.0829  0.5499  -1.9583   0.0000   0.0000   0.0000   0.3862
   4.700   1.3919   0.01383   0.00633  -0.1997  0.0813  0.5595  -1.9917   0.0000   0.0000   0.0000   0.3849
   4.800   1.4013   0.01395   0.00645  -0.1994  0.0784  0.5651  -2.0246   0.0000   0.0000   0.0000   0.3835
   4.900   1.4091   0.01420   0.00667  -0.1989  0.0668  0.5742  -2.0548   0.0000   0.0000   0.0000   0.3822
   5.000   1.4184   0.01434   0.00680  -0.1986  0.0650  0.5816  -2.0876   0.0000   0.0000   0.0000   0.3809
   5.100   1.4275   0.01448   0.00692  -0.1982  0.0633  0.5868  -2.1202   0.0000   0.0000   0.0000   0.3796
   5.200   1.4365   0.01462   0.00705  -0.1979  0.0616  0.5918  -2.1527   0.0000   0.0000   0.0000   0.3784
   5.300   1.4455   0.01475   0.00718  -0.1975  0.0597  0.5961  -2.1852   0.0000   0.0000   0.0000   0.3771
   5.400   1.4547   0.01488   0.00731  -0.1972  0.0574  0.6026  -2.2180   0.0000   0.0000   0.0000   0.3758
   5.500   1.4640   0.01500   0.00744  -0.1969  0.0552  0.6108  -2.2512   0.0000   0.0000   0.0000   0.3746
   5.600   1.4732   0.01512   0.00757  -0.1966  0.0533  0.6179  -2.2842   0.0000   0.0000   0.0000   0.3734
   5.700   1.4823   0.01524   0.00769  -0.1962  0.0517  0.6239  -2.3172   0.0000   0.0000   0.0000   0.3722
   5.800   1.4914   0.01535   0.00782  -0.1959  0.0515  0.6281  -2.3524   0.0000   0.0000   0.0000   0.3710
   5.900   1.5006   0.01546   0.00795  -0.1955  0.0512  0.6341  -2.3878   0.0000   0.0000   0.0000   0.3698
   6.000   1.5098   0.01558   0.00809  -0.1952  0.0507  0.6418  -2.4232   0.0000   0.0000   0.0000   0.3687
   6.100   1.5182   0.01573   0.00828  -0.1948  0.0490  0.6485  -2.4588   0.0000   0.0000   0.0000   0.3675
   6.200   1.5259   0.01590   0.00845  -0.1942  0.0470  0.6526  -2.4928   0.0000   0.0000   0.0000   0.3663
   6.300   1.5332   0.01606   0.00862  -0.1935  0.0454  0.6563  -2.5254   0.0000   0.0000   0.0000   0.3651
   6.400   1.5399   0.01624   0.00879  -0.1927  0.0439  0.6593  -2.5571   0.0000   0.0000   0.0000   0.3639
   6.600   1.5541   0.01657   0.00913  -0.1913  0.0408  0.6688  -2.6218   0.0000   0.0000   0.0000   0.3615
   6.700   1.5616   0.01672   0.00929  -0.1907  0.0393  0.6738  -2.6545   0.0000   0.0000   0.0000   0.3603
   6.800   1.5691   0.01687   0.00944  -0.1901  0.0382  0.6785  -2.6875   0.0000   0.0000   0.0000   0.3592
   6.900   1.5768   0.01700   0.00959  -0.1895  0.0379  0.6829  -2.7218   0.0000   0.0000   0.0000   0.3581
   7.000   1.5844   0.01715   0.00974  -0.1889  0.0376  0.6868  -2.7560   0.0000   0.0000   0.0000   0.3569
   7.100   1.5918   0.01730   0.00989  -0.1882  0.0373  0.6900  -2.7901   0.0000   0.0000   0.0000   0.3558
   7.200   1.5993   0.01746   0.01006  -0.1876  0.0368  0.6942  -2.8246   0.0000   0.0000   0.0000   0.3547
   7.300   1.6067   0.01762   0.01023  -0.1870  0.0362  0.7000  -2.8594   0.0000   0.0000   0.0000   0.3536
   7.400   1.6140   0.01779   0.01042  -0.1864  0.0354  0.7053  -2.8942   0.0000   0.0000   0.0000   0.3525
   7.500   1.6207   0.01798   0.01062  -0.1857  0.0340  0.7103  -2.9292   0.0000   0.0000   0.0000   0.3515
   7.600   1.6236   0.01838   0.01097  -0.1843  0.0281  0.7150  -2.9639   0.0000   0.0000   0.0000   0.3503
   7.700   1.6273   0.01875   0.01129  -0.1831  0.0240  0.7195  -2.9930   0.0000   0.0000   0.0000   0.3491
   7.900   1.6373   0.01937   0.01191  -0.1812  0.0175  0.7328  -3.0293   0.0000   0.0000   0.0000   0.3469
   8.000   1.6437   0.01959   0.01215  -0.1805  0.0163  0.7401  -3.0600   0.0000   0.0000   0.0000   0.3458
   8.100   1.6496   0.01986   0.01242  -0.1797  0.0148  0.7468  -3.0910   0.0000   0.0000   0.0000   0.3448
   8.200   1.6460   0.02068   0.01323  -0.1774  0.0045  0.7525  -3.1113   0.0000   0.0000   0.0000   0.3435
   8.300   1.6517   0.02096   0.01354  -0.1766  0.0043  0.7611  -3.1433   0.0000   0.0000   0.0000   0.3424
   8.400   1.6572   0.02126   0.01386  -0.1758  0.0040  0.7697  -3.1756   0.0000   0.0000   0.0000   0.3414
   8.500   1.6628   0.02155   0.01416  -0.1750  0.0038  0.7776  -3.2078   0.0000   0.0000   0.0000   0.3404
   8.600   1.6693   0.02180   0.01444  -0.1744  0.0034  0.7881  -3.2396   0.0000   0.0000   0.0000   0.3394
   8.700   1.6758   0.02205   0.01475  -0.1737  0.0039  0.7987  -3.2726   0.0000   0.0000   0.0000   0.3385
   8.800   1.6818   0.02233   0.01505  -0.1731  0.0037  0.8089  -3.3052   0.0000   0.0000   0.0000   0.3375
   8.900   1.6881   0.02260   0.01535  -0.1724  0.0034  0.8211  -3.3366   0.0000   0.0000   0.0000   0.3366
   9.000   1.6941   0.02288   0.01566  -0.1718  0.0029  0.8336  -3.3663   0.0000   0.0000   0.0000   0.3356
   9.100   1.7005   0.02314   0.01597  -0.1712  0.0023  0.8501  -3.3968   0.0000   0.0000   0.0000   0.3347
   9.200   1.7063   0.02343   0.01631  -0.1705  0.0018  0.8737  -3.4277   0.0000   0.0000   0.0000   0.3338
   9.400   1.7110   0.02393   0.01696  -0.1678  0.0016  1.0000  -3.4777   0.0000   0.0000   0.0000   0.3316
   9.500   1.7164   0.02428   0.01733  -0.1671  0.0016  1.0000  -3.5086   0.0000   0.0000   0.0000   0.3307
   9.600   1.7218   0.02464   0.01771  -0.1664  0.0015  1.0000  -3.5398   0.0000   0.0000   0.0000   0.3298
   9.700   1.7270   0.02501   0.01809  -0.1657  0.0015  1.0000  -3.5707   0.0000   0.0000   0.0000   0.3289
   9.800   1.7320   0.02540   0.01850  -0.1650  0.0015  1.0000  -3.6011   0.0000   0.0000   0.0000   0.3280
   9.900   1.7368   0.02580   0.01892  -0.1643  0.0015  1.0000  -3.6316   0.0000   0.0000   0.0000   0.3271
  10.000   1.7417   0.02620   0.01933  -0.1636  0.0015  1.0000  -3.6701   0.0000   0.0000   0.0000   0.3263
  10.100   1.7464   0.02661   0.01977  -0.1628  0.0015  1.0000  -3.7082   0.0000   0.0000   0.0000   0.3254
  10.200   1.7508   0.02705   0.02023  -0.1621  0.0015  1.0000  -3.7457   0.0000   0.0000   0.0000   0.3246
  10.300   1.7553   0.02750   0.02071  -0.1614  0.0015  1.0000  -3.7834   0.0000   0.0000   0.0000   0.3237
  10.400   1.7599   0.02795   0.02118  -0.1607  0.0015  1.0000  -3.8214   0.0000   0.0000   0.0000   0.3229
  10.500   1.7644   0.02842   0.02167  -0.1600  0.0015  1.0000  -3.8594   0.0000   0.0000   0.0000   0.3221
  10.600   1.7685   0.02892   0.02220  -0.1593  0.0015  1.0000  -3.8962   0.0000   0.0000   0.0000   0.3213
  10.700   1.7725   0.02944   0.02274  -0.1586  0.0015  1.0000  -3.9328   0.0000   0.0000   0.0000   0.3205
  10.800   1.7766   0.02996   0.02328  -0.1580  0.0015  1.0000  -3.9697   0.0000   0.0000   0.0000   0.3197
  10.900   1.7807   0.03048   0.02383  -0.1573  0.0016  1.0000  -4.0068   0.0000   0.0000   0.0000   0.3189
  11.000   1.7843   0.03105   0.02443  -0.1566  0.0016  1.0000  -4.0425   0.0000   0.0000   0.0000   0.3181
  11.100   1.7877   0.03165   0.02506  -0.1559  0.0016  1.0000  -4.0776   0.0000   0.0000   0.0000   0.3174
  11.200   1.7912   0.03225   0.02570  -0.1553  0.0016  1.0000  -4.1124   0.0000   0.0000   0.0000   0.3166
  11.300   1.7948   0.03284   0.02631  -0.1546  0.0016  1.0000  -4.1481   0.0000   0.0000   0.0000   0.3159
  11.400   1.7983   0.03345   0.02695  -0.1540  0.0017  1.0000  -4.1836   0.0000   0.0000   0.0000   0.3151
  11.500   1.8012   0.03412   0.02765  -0.1533  0.0017  1.0000  -4.2173   0.0000   0.0000   0.0000   0.3144
  11.600   1.8040   0.03480   0.02836  -0.1526  0.0017  1.0000  -4.2512   0.0000   0.0000   0.0000   0.3137
  11.700   1.8070   0.03547   0.02905  -0.1520  0.0017  1.0000  -4.2857   0.0000   0.0000   0.0000   0.3130
  11.800   1.8101   0.03614   0.02974  -0.1514  0.0018  1.0000  -4.3205   0.0000   0.0000   0.0000   0.3123
  11.900   1.8125   0.03688   0.03051  -0.1507  0.0018  1.0000  -4.3684   0.0000   0.0000   0.0000   0.3116
  12.000   1.8145   0.03767   0.03133  -0.1501  0.0018  1.0000  -4.4290   0.0000   0.0000   0.0000   0.3109
  12.100   1.8168   0.03843   0.03213  -0.1495  0.0019  1.0000  -4.4915   0.0000   0.0000   0.0000   0.3103
  12.200   1.8192   0.03918   0.03291  -0.1488  0.0019  1.0000  -4.5554   0.0000   0.0000   0.0000   0.3096
  12.300   1.8217   0.03994   0.03369  -0.1483  0.0019  1.0000  -4.6196   0.0000   0.0000   0.0000   0.3090
  12.400   1.8235   0.04078   0.03456  -0.1476  0.0020  1.0000  -4.6804   0.0000   0.0000   0.0000   0.3083
  12.500   1.8247   0.04168   0.03549  -0.1470  0.0020  1.0000  -4.7385   0.0000   0.0000   0.0000   0.3077
  12.600   1.8260   0.04255   0.03639  -0.1464  0.0020  1.0000  -4.7978   0.0000   0.0000   0.0000   0.3071
  12.700   1.8276   0.04340   0.03728  -0.1458  0.0021  1.0000  -4.8583   0.0000   0.0000   0.0000   0.3065
  12.800   1.8292   0.04426   0.03816  -0.1452  0.0021  1.0000  -4.9193   0.0000   0.0000   0.0000   0.3059
  12.900   1.8298   0.04526   0.03919  -0.1447  0.0022  1.0000  -4.9748   0.0000   0.0000   0.0000   0.3053
  13.000   1.8303   0.04628   0.04026  -0.1441  0.0022  1.0000  -5.0298   0.0000   0.0000   0.0000   0.3047
  13.100   1.8313   0.04726   0.04126  -0.1436  0.0023  1.0000  -5.0876   0.0000   0.0000   0.0000   0.3042
  13.200   1.8326   0.04822   0.04226  -0.1431  0.0023  1.0000  -5.1465   0.0000   0.0000   0.0000   0.3036
  13.300   1.8339   0.04919   0.04326  -0.1426  0.0024  1.0000  -5.2047   0.0000   0.0000   0.0000   0.3031
  13.400   1.8348   0.05023   0.04433  -0.1421  0.0025  1.0000  -5.2599   0.0000   0.0000   0.0000   0.3025
  13.500   1.8344   0.05144   0.04558  -0.1416  0.0025  1.0000  -5.3073   0.0000   0.0000   0.0000   0.3020
  13.600   1.8346   0.05258   0.04675  -0.1412  0.0026  1.0000  -5.3559   0.0000   0.0000   0.0000   0.3016
  13.700   1.8358   0.05362   0.04783  -0.1408  0.0028  1.0000  -5.4044   0.0000   0.0000   0.0000   0.3010
  13.800   1.8383   0.05451   0.04873  -0.1404  0.0030  1.0000  -5.4501   0.0000   0.0000   0.0000   0.3005
  13.900   1.8430   0.05516   0.04937  -0.1401  0.0032  1.0000  -5.4971   0.0000   0.0000   0.0000   0.2999
  14.000   1.8479   0.05579   0.05000  -0.1399  0.0035  1.0000  -5.5476   0.0000   0.0000   0.0000   0.2993
  14.100   1.8524   0.05649   0.05070  -0.1396  0.0038  1.0000  -5.6007   0.0000   0.0000   0.0000   0.2988
  14.200   1.8583   0.05701   0.05124  -0.1394  0.0041  1.0000  -5.6629   0.0000   0.0000   0.0000   0.2982
  14.300   1.8639   0.05758   0.05186  -0.1392  0.0043  1.0000  -5.7253   0.0000   0.0000   0.0000   0.2976
  14.400   1.8691   0.05820   0.05252  -0.1390  0.0044  1.0000  -5.7794   0.0000   0.0000   0.0000   0.2970
  14.600   1.8743   0.06004   0.05447  -0.1384  0.0050  1.0000  -5.8797   0.0000   0.0000   0.0000   0.2960
  14.700   1.8757   0.06110   0.05556  -0.1381  0.0052  1.0000  -5.9402   0.0000   0.0000   0.0000   0.2955
  14.800   1.8769   0.06219   0.05668  -0.1378  0.0054  1.0000  -5.9996   0.0000   0.0000   0.0000   0.2951
  14.900   1.8768   0.06346   0.05799  -0.1375  0.0056  1.0000  -6.0517   0.0000   0.0000   0.0000   0.2947
  15.000   1.8756   0.06490   0.05948  -0.1373  0.0058  1.0000  -6.0976   0.0000   0.0000   0.0000   0.2943
  15.100   1.8753   0.06622   0.06084  -0.1371  0.0060  1.0000  -6.1482   0.0000   0.0000   0.0000   0.2940
  15.200   1.8752   0.06751   0.06217  -0.1368  0.0062  1.0000  -6.1991   0.0000   0.0000   0.0000   0.2936
  15.300   1.8748   0.06883   0.06355  -0.1366  0.0065  1.0000  -6.2479   0.0000   0.0000   0.0000   0.2932
  15.400   1.8735   0.07030   0.06508  -0.1364  0.0069  1.0000  -6.2905   0.0000   0.0000   0.0000   0.2929
  15.500   1.8703   0.07208   0.06693  -0.1363  0.0073  1.0000  -6.3202   0.0000   0.0000   0.0000   0.2927
  15.600   1.8917   0.07067   0.06555  -0.1361  0.0094  1.0000  -6.4294   0.0000   0.0000   0.0000   0.2915
  15.700   1.8914   0.07209   0.06703  -0.1359  0.0096  1.0000  -6.4628   0.0000   0.0000   0.0000   0.2912
  15.800   1.8891   0.07372   0.06874  -0.1357  0.0098  1.0000  -6.4877   0.0000   0.0000   0.0000   0.2909
  15.900   1.8852   0.07559   0.07068  -0.1355  0.0099  1.0000  -6.5030   0.0000   0.0000   0.0000   0.2907
  16.000   1.8823   0.07729   0.07245  -0.1354  0.0099  1.0000  -6.5328   0.0000   0.0000   0.0000   0.2904
  16.100   1.8778   0.07921   0.07443  -0.1353  0.0099  1.0000  -6.5556   0.0000   0.0000   0.0000   0.2903
  16.200   1.8719   0.08136   0.07663  -0.1354  0.0099  1.0000  -6.5705   0.0000   0.0000   0.0000   0.2903
  16.300   1.8673   0.08330   0.07864  -0.1353  0.0099  1.0000  -6.5916   0.0000   0.0000   0.0000   0.2902
  16.400   1.8627   0.08525   0.08064  -0.1353  0.0099  1.0000  -6.6128   0.0000   0.0000   0.0000   0.2901
  16.500   1.8569   0.08745   0.08291  -0.1355  0.0099  1.0000  -6.6266   0.0000   0.0000   0.0000   0.2901
  16.600   1.8504   0.08984   0.08536  -0.1357  0.0099  1.0000  -6.6354   0.0000   0.0000   0.0000   0.2902
  16.700   1.8450   0.09200   0.08758  -0.1359  0.0099  1.0000  -6.6503   0.0000   0.0000   0.0000   0.2903
  16.800   1.8407   0.09401   0.08965  -0.1360  0.0099  1.0000  -6.6722   0.0000   0.0000   0.0000   0.2903
  16.900   1.8370   0.09595   0.09164  -0.1362  0.0098  1.0000  -6.6988   0.0000   0.0000   0.0000   0.2902
  17.000   1.8308   0.09837   0.09413  -0.1366  0.0098  1.0000  -6.7095   0.0000   0.0000   0.0000   0.2904
  17.100   1.8257   0.10060   0.09641  -0.1370  0.0098  1.0000  -6.7270   0.0000   0.0000   0.0000   0.2906
  17.200   1.8219   0.10260   0.09846  -0.1373  0.0098  1.0000  -6.7527   0.0000   0.0000   0.0000   0.2906
  17.300   1.8186   0.10454   0.10044  -0.1376  0.0098  1.0000  -6.7814   0.0000   0.0000   0.0000   0.2907
  17.400   1.8138   0.10675   0.10271  -0.1381  0.0098  1.0000  -6.8002   0.0000   0.0000   0.0000   0.2909
  17.500   1.8078   0.10919   0.10520  -0.1387  0.0097  1.0000  -6.8112   0.0000   0.0000   0.0000   0.2912
  17.600   1.8042   0.11120   0.10726  -0.1391  0.0097  1.0000  -6.8371   0.0000   0.0000   0.0000   0.2913
  17.700   1.8011   0.11311   0.10921  -0.1395  0.0097  1.0000  -6.8671   0.0000   0.0000   0.0000   0.2914
  17.800   1.7980   0.11502   0.11116  -0.1400  0.0096  1.0000  -6.8968   0.0000   0.0000   0.0000   0.2915
  17.900   1.7946   0.11700   0.11318  -0.1405  0.0096  1.0000  -6.9238   0.0000   0.0000   0.0000   0.2917
  18.000   1.7880   0.11959   0.11583  -0.1413  0.0096  1.0000  -6.9281   0.0000   0.0000   0.0000   0.2922
  18.100   1.7835   0.12179   0.11809  -0.1420  0.0095  1.0000  -6.9466   0.0000   0.0000   0.0000   0.2925
  18.200   1.7798   0.12383   0.12017  -0.1426  0.0094  1.0000  -6.9708   0.0000   0.0000   0.0000   0.2927
  18.300   1.7762   0.12586   0.12224  -0.1432  0.0094  1.0000  -6.9952   0.0000   0.0000   0.0000   0.2929
  18.400   1.7709   0.12820   0.12463  -0.1441  0.0093  1.0000  -7.0073   0.0000   0.0000   0.0000   0.2934
  18.500   1.7650   0.13070   0.12719  -0.1450  0.0093  1.0000  -7.0135   0.0000   0.0000   0.0000   0.2939
  18.600   1.7611   0.13280   0.12933  -0.1458  0.0092  1.0000  -7.0346   0.0000   0.0000   0.0000   0.2943
  18.700   1.7576   0.13482   0.13138  -0.1465  0.0091  1.0000  -7.0584   0.0000   0.0000   0.0000   0.2946
  18.800   1.7540   0.13683   0.13344  -0.1473  0.0090  1.0000  -7.0817   0.0000   0.0000   0.0000   0.2949
  18.900   1.7501   0.13890   0.13556  -0.1481  0.0088  1.0000  -7.1025   0.0000   0.0000   0.0000   0.2953
  19.000   1.7441   0.14147   0.13817  -0.1493  0.0088  1.0000  -7.1046   0.0000   0.0000   0.0000   0.2960
  19.100   1.7388   0.14389   0.14064  -0.1504  0.0087  1.0000  -7.1122   0.0000   0.0000   0.0000   0.2966
  19.200   1.7345   0.14607   0.14286  -0.1514  0.0086  1.0000  -7.1284   0.0000   0.0000   0.0000   0.2971
  19.300   1.7305   0.14821   0.14505  -0.1524  0.0084  1.0000  -7.1461   0.0000   0.0000   0.0000   0.2976
  19.400   1.7264   0.15026   0.14716  -0.1534  0.0083  1.0000  -7.1620   0.0000   0.0000   0.0000   0.2982


