xflr5 v6.59

 Calculated polar for: WORTMANN FX 63-137 AIRFOIL

 1 1 Reynolds number fixed          Mach number fixed         

 xtrf =   1.000 (top)        1.000 (bottom)
 Mach =   0.000     Re =     1.900 e 6     Ncrit =   9.000

  alpha     CL        CD       CDp       Cm    Top Xtr Bot Xtr   Cpmin    Chinge    XCp    
 ------- -------- --------- --------- -------- ------- ------- -------- --------- ---------
   0.000   0.8946   0.01014   0.00254  -0.2028  0.2184  0.0197  -1.1133   0.0000   0.0000   0.0000   0.4748
   0.100   0.9059   0.01018   0.00257  -0.2028  0.2157  0.0196  -1.1241   0.0000   0.0000   0.0000   0.4719
   0.200   0.9151   0.01038   0.00269  -0.2025  0.1955  0.0196  -1.1389   0.0000   0.0000   0.0000   0.4691
   0.300   0.9261   0.01044   0.00273  -0.2024  0.1923  0.0196  -1.1503   0.0000   0.0000   0.0000   0.4663
   0.400   0.9370   0.01050   0.00278  -0.2024  0.1891  0.0196  -1.1605   0.0000   0.0000   0.0000   0.4636
   0.500   0.9478   0.01057   0.00282  -0.2023  0.1859  0.0196  -1.1704   0.0000   0.0000   0.0000   0.4609
   0.600   0.9587   0.01063   0.00287  -0.2023  0.1827  0.0196  -1.1814   0.0000   0.0000   0.0000   0.4583
   0.700   0.9696   0.01069   0.00291  -0.2023  0.1793  0.0197  -1.1922   0.0000   0.0000   0.0000   0.4557
   0.800   0.9806   0.01074   0.00296  -0.2022  0.1754  0.0199  -1.2029   0.0000   0.0000   0.0000   0.4532
   0.900   0.9917   0.01079   0.00299  -0.2022  0.1719  0.0205  -1.2135   0.0000   0.0000   0.0000   0.4508
   1.000   1.0031   0.01081   0.00307  -0.2023  0.1703  0.0336  -1.2241   0.0000   0.0000   0.0000   0.4484
   1.100   1.0144   0.01084   0.00311  -0.2023  0.1697  0.0363  -1.2355   0.0000   0.0000   0.0000   0.4460
   1.200   1.0256   0.01087   0.00314  -0.2023  0.1690  0.0374  -1.2504   0.0000   0.0000   0.0000   0.4437
   1.300   1.0367   0.01091   0.00318  -0.2023  0.1682  0.0380  -1.2653   0.0000   0.0000   0.0000   0.4415
   1.400   1.0478   0.01094   0.00322  -0.2023  0.1671  0.0384  -1.2804   0.0000   0.0000   0.0000   0.4393
   1.500   1.0589   0.01099   0.00326  -0.2023  0.1655  0.0396  -1.2956   0.0000   0.0000   0.0000   0.4371
   1.600   1.0699   0.01103   0.00330  -0.2023  0.1638  0.0413  -1.3109   0.0000   0.0000   0.0000   0.4350
   1.700   1.0787   0.01125   0.00345  -0.2019  0.1460  0.0432  -1.3297   0.0000   0.0000   0.0000   0.4329
   1.800   1.0894   0.01132   0.00350  -0.2018  0.1435  0.0458  -1.3431   0.0000   0.0000   0.0000   0.4309
   1.900   1.0999   0.01140   0.00356  -0.2018  0.1410  0.0481  -1.3557   0.0000   0.0000   0.0000   0.4289
   2.000   1.1106   0.01148   0.00363  -0.2017  0.1384  0.0502  -1.3672   0.0000   0.0000   0.0000   0.4269
   2.100   1.1215   0.01154   0.00370  -0.2017  0.1358  0.0626  -1.3784   0.0000   0.0000   0.0000   0.4250
   2.200   1.1321   0.01161   0.00377  -0.2016  0.1330  0.0652  -1.3898   0.0000   0.0000   0.0000   0.4231
   2.300   1.1428   0.01167   0.00382  -0.2015  0.1300  0.0700  -1.4024   0.0000   0.0000   0.0000   0.4212
   2.400   1.1552   0.01166   0.00390  -0.2019  0.1269  0.1237  -1.4211   0.0000   0.0000   0.0000   0.4195
   2.500   1.1677   0.01164   0.00396  -0.2023  0.1243  0.1705  -1.4399   0.0000   0.0000   0.0000   0.4178
   2.600   1.1796   0.01164   0.00401  -0.2025  0.1237  0.2015  -1.4589   0.0000   0.0000   0.0000   0.4161
   2.700   1.1912   0.01166   0.00407  -0.2027  0.1232  0.2220  -1.4779   0.0000   0.0000   0.0000   0.4145
   2.800   1.2030   0.01167   0.00413  -0.2029  0.1225  0.2499  -1.4970   0.0000   0.0000   0.0000   0.4128
   2.900   1.2147   0.01168   0.00419  -0.2031  0.1215  0.2741  -1.5167   0.0000   0.0000   0.0000   0.4112
   3.000   1.2263   0.01171   0.00427  -0.2033  0.1183  0.3065  -1.5395   0.0000   0.0000   0.0000   0.4097
   3.100   1.2350   0.01196   0.00447  -0.2029  0.1017  0.3244  -1.5596   0.0000   0.0000   0.0000   0.4081
   3.300   1.2559   0.01218   0.00469  -0.2029  0.0924  0.3705  -1.6033   0.0000   0.0000   0.0000   0.4050
   3.400   1.2666   0.01226   0.00480  -0.2029  0.0869  0.3884  -1.6252   0.0000   0.0000   0.0000   0.4035
   3.500   1.2773   0.01232   0.00488  -0.2028  0.0842  0.4015  -1.6483   0.0000   0.0000   0.0000   0.4020
   3.600   1.2885   0.01237   0.00497  -0.2029  0.0834  0.4208  -1.6736   0.0000   0.0000   0.0000   0.4005
   3.700   1.2990   0.01243   0.00505  -0.2028  0.0823  0.4312  -1.6980   0.0000   0.0000   0.0000   0.3990
   3.800   1.3094   0.01251   0.00514  -0.2027  0.0807  0.4370  -1.7221   0.0000   0.0000   0.0000   0.3975
   3.900   1.3201   0.01255   0.00520  -0.2026  0.0826  0.4364  -1.7447   0.0000   0.0000   0.0000   0.3961
   4.000   1.3310   0.01261   0.00528  -0.2026  0.0822  0.4496  -1.7785   0.0000   0.0000   0.0000   0.3947
   4.100   1.3415   0.01268   0.00537  -0.2025  0.0809  0.4600  -1.8120   0.0000   0.0000   0.0000   0.3933
   4.200   1.3516   0.01277   0.00546  -0.2024  0.0782  0.4668  -1.8450   0.0000   0.0000   0.0000   0.3919
   4.300   1.3598   0.01302   0.00568  -0.2019  0.0660  0.4769  -1.8751   0.0000   0.0000   0.0000   0.3905
   4.400   1.3697   0.01313   0.00578  -0.2017  0.0641  0.4872  -1.9080   0.0000   0.0000   0.0000   0.3891
   4.500   1.3794   0.01325   0.00589  -0.2015  0.0624  0.4939  -1.9408   0.0000   0.0000   0.0000   0.3878
   4.600   1.3891   0.01336   0.00598  -0.2012  0.0606  0.4979  -1.9737   0.0000   0.0000   0.0000   0.3864
   4.700   1.3989   0.01346   0.00608  -0.2010  0.0586  0.5037  -2.0068   0.0000   0.0000   0.0000   0.3851
   4.800   1.4090   0.01356   0.00620  -0.2009  0.0565  0.5173  -2.0406   0.0000   0.0000   0.0000   0.3838
   4.900   1.4190   0.01365   0.00631  -0.2007  0.0547  0.5280  -2.0742   0.0000   0.0000   0.0000   0.3825
   5.000   1.4289   0.01375   0.00641  -0.2005  0.0531  0.5355  -2.1078   0.0000   0.0000   0.0000   0.3812
   5.100   1.4390   0.01383   0.00652  -0.2004  0.0517  0.5477  -2.1420   0.0000   0.0000   0.0000   0.3800
   5.200   1.4489   0.01392   0.00663  -0.2002  0.0515  0.5547  -2.1773   0.0000   0.0000   0.0000   0.3788
   5.300   1.4586   0.01402   0.00674  -0.1999  0.0511  0.5581  -2.2125   0.0000   0.0000   0.0000   0.3775
   5.400   1.4681   0.01412   0.00685  -0.1997  0.0505  0.5611  -2.2475   0.0000   0.0000   0.0000   0.3763
   5.500   1.4775   0.01424   0.00696  -0.1994  0.0497  0.5636  -2.2824   0.0000   0.0000   0.0000   0.3751
   5.600   1.4867   0.01435   0.00708  -0.1990  0.0487  0.5662  -2.3173   0.0000   0.0000   0.0000   0.3739
   5.700   1.4960   0.01448   0.00721  -0.1987  0.0474  0.5733  -2.3525   0.0000   0.0000   0.0000   0.3727
   5.800   1.5053   0.01460   0.00735  -0.1984  0.0461  0.5805  -2.3876   0.0000   0.0000   0.0000   0.3715
   5.900   1.5143   0.01473   0.00748  -0.1981  0.0447  0.5877  -2.4226   0.0000   0.0000   0.0000   0.3703
   6.000   1.5232   0.01487   0.00762  -0.1977  0.0433  0.5949  -2.4573   0.0000   0.0000   0.0000   0.3692
   6.100   1.5313   0.01506   0.00784  -0.1972  0.0381  0.6079  -2.4917   0.0000   0.0000   0.0000   0.3680
   6.200   1.5405   0.01517   0.00797  -0.1969  0.0377  0.6174  -2.5282   0.0000   0.0000   0.0000   0.3669
   6.300   1.5495   0.01529   0.00809  -0.1966  0.0373  0.6242  -2.5643   0.0000   0.0000   0.0000   0.3657
   6.400   1.5583   0.01541   0.00821  -0.1962  0.0368  0.6282  -2.6000   0.0000   0.0000   0.0000   0.3646
   6.500   1.5670   0.01553   0.00834  -0.1958  0.0362  0.6327  -2.6360   0.0000   0.0000   0.0000   0.3635
   6.600   1.5754   0.01566   0.00848  -0.1953  0.0355  0.6400  -2.6718   0.0000   0.0000   0.0000   0.3623
   6.700   1.5830   0.01580   0.00862  -0.1947  0.0343  0.6457  -2.7069   0.0000   0.0000   0.0000   0.3612
   6.800   1.5863   0.01614   0.00891  -0.1933  0.0276  0.6503  -2.7411   0.0000   0.0000   0.0000   0.3599
   6.900   1.5917   0.01638   0.00913  -0.1923  0.0240  0.6547  -2.7703   0.0000   0.0000   0.0000   0.3587
   7.000   1.5970   0.01663   0.00936  -0.1912  0.0213  0.6584  -2.7899   0.0000   0.0000   0.0000   0.3575
   7.200   1.6108   0.01699   0.00972  -0.1898  0.0168  0.6690  -2.8436   0.0000   0.0000   0.0000   0.3552
   7.300   1.6181   0.01714   0.00989  -0.1891  0.0162  0.6743  -2.8764   0.0000   0.0000   0.0000   0.3541
   7.600   1.6293   0.01819   0.01093  -0.1853  0.0043  0.6866  -2.9652   0.0000   0.0000   0.0000   0.3505
   7.700   1.6355   0.01841   0.01115  -0.1845  0.0041  0.6897  -2.9979   0.0000   0.0000   0.0000   0.3494
   7.800   1.6419   0.01862   0.01137  -0.1837  0.0039  0.6934  -3.0307   0.0000   0.0000   0.0000   0.3483
   7.900   1.6487   0.01882   0.01159  -0.1831  0.0037  0.6995  -3.0640   0.0000   0.0000   0.0000   0.3472
   8.000   1.6557   0.01902   0.01180  -0.1824  0.0035  0.7050  -3.0967   0.0000   0.0000   0.0000   0.3462
   8.100   1.6625   0.01922   0.01201  -0.1818  0.0032  0.7102  -3.1288   0.0000   0.0000   0.0000   0.3452
   8.200   1.6692   0.01942   0.01222  -0.1811  0.0028  0.7151  -3.1608   0.0000   0.0000   0.0000   0.3442
   8.300   1.6760   0.01962   0.01243  -0.1804  0.0025  0.7197  -3.1929   0.0000   0.0000   0.0000   0.3432
   8.400   1.6829   0.01982   0.01265  -0.1798  0.0021  0.7263  -3.2258   0.0000   0.0000   0.0000   0.3422
   8.500   1.6893   0.02005   0.01292  -0.1791  0.0023  0.7342  -3.2589   0.0000   0.0000   0.0000   0.3412
   8.600   1.6956   0.02028   0.01318  -0.1784  0.0023  0.7417  -3.2914   0.0000   0.0000   0.0000   0.3402
   8.700   1.7020   0.02051   0.01342  -0.1777  0.0019  0.7482  -3.3237   0.0000   0.0000   0.0000   0.3392
  12.200   1.8516   0.03644   0.03042  -0.1516  0.0022  1.0000  -4.7068   0.0000   0.0000   0.0000   0.3097
  12.300   1.8532   0.03726   0.03128  -0.1509  0.0023  1.0000  -4.7666   0.0000   0.0000   0.0000   0.3090
  12.400   1.8549   0.03808   0.03212  -0.1502  0.0024  1.0000  -4.8268   0.0000   0.0000   0.0000   0.3083
  12.500   1.8569   0.03888   0.03295  -0.1496  0.0025  1.0000  -4.8865   0.0000   0.0000   0.0000   0.3077
  12.600   1.8589   0.03968   0.03379  -0.1490  0.0027  1.0000  -4.9438   0.0000   0.0000   0.0000   0.3070
  12.700   1.8633   0.04026   0.03437  -0.1485  0.0031  1.0000  -4.9893   0.0000   0.0000   0.0000   0.3064
  12.800   1.8790   0.03976   0.03377  -0.1487  0.0040  1.0000  -5.0513   0.0000   0.0000   0.0000   0.3056
  12.900   1.8913   0.03958   0.03356  -0.1488  0.0044  1.0000  -5.1319   0.0000   0.0000   0.0000   0.3049
  18.300   1.7500   0.13117   0.12763  -0.1473  0.0033  1.0000  -7.1261   0.0000   0.0000   0.0000   0.2967
  18.400   1.7455   0.13341   0.12991  -0.1482  0.0033  1.0000  -7.1469   0.0000   0.0000   0.0000   0.2971
  18.500   1.7412   0.13558   0.13212  -0.1490  0.0032  1.0000  -7.1698   0.0000   0.0000   0.0000   0.2975
  18.600   1.7369   0.13777   0.13435  -0.1499  0.0032  1.0000  -7.1912   0.0000   0.0000   0.0000   0.2980
  18.700   1.7308   0.14036   0.13698  -0.1510  0.0031  1.0000  -7.1961   0.0000   0.0000   0.0000   0.2987
  18.800   1.7245   0.14305   0.13972  -0.1523  0.0031  1.0000  -7.1972   0.0000   0.0000   0.0000   0.2995
  18.900   1.7198   0.14536   0.14207  -0.1533  0.0031  1.0000  -7.2132   0.0000   0.0000   0.0000   0.3000
  19.000   1.7156   0.14758   0.14433  -0.1543  0.0030  1.0000  -7.2321   0.0000   0.0000   0.0000   0.3006
  19.100   1.7105   0.14999   0.14679  -0.1555  0.0030  1.0000  -7.2418   0.0000   0.0000   0.0000   0.3013
  19.200   1.7040   0.15262   0.14947  -0.1570  0.0030  1.0000  -7.2360   0.0000   0.0000   0.0000   0.3022
  19.300   1.7002   0.15461   0.15149  -0.1582  0.0030  1.0000  -7.2539   0.0000   0.0000   0.0000   0.3028
  19.400   1.6968   0.15648   0.15340  -0.1593  0.0029  1.0000  -7.2763   0.0000   0.0000   0.0000   0.3034
  19.500   1.6935   0.15838   0.15533  -0.1604  0.0029  1.0000  -7.2985   0.0000   0.0000   0.0000   0.3040
  19.600   1.6900   0.16036   0.15734  -0.1615  0.0028  1.0000  -7.3187   0.0000   0.0000   0.0000   0.3046
  19.700   1.6843   0.16291   0.15994  -0.1631  0.0028  1.0000  -7.3149   0.0000   0.0000   0.0000   0.3056
  19.800   1.6791   0.16540   0.16247  -0.1646  0.0028  1.0000  -7.3153   0.0000   0.0000   0.0000   0.3065
  19.900   1.6752   0.16761   0.16473  -0.1659  0.0028  1.0000  -7.3287   0.0000   0.0000   0.0000   0.3073
  20.000   1.6716   0.16980   0.16696  -0.1671  0.0027  1.0000  -7.3447   0.0000   0.0000   0.0000   0.3080


