xflr5 v6.59

 Calculated polar for: WORTMANN FX 63-137 AIRFOIL

 1 1 Reynolds number fixed          Mach number fixed         

 xtrf =   1.000 (top)        1.000 (bottom)
 Mach =   0.000     Re =     2.900 e 6     Ncrit =   9.000

  alpha     CL        CD       CDp       Cm    Top Xtr Bot Xtr   Cpmin    Chinge    XCp    
 ------- -------- --------- --------- -------- ------- ------- -------- --------- ---------
   0.000   0.8995   0.00999   0.00264  -0.2041  0.1450  0.0190  -1.1306   0.0000   0.0000   0.0000   0.4750
   0.100   0.9106   0.01004   0.00267  -0.2041  0.1430  0.0188  -1.1409   0.0000   0.0000   0.0000   0.4721
   0.200   0.9217   0.01009   0.00270  -0.2041  0.1410  0.0187  -1.1513   0.0000   0.0000   0.0000   0.4692
   0.300   0.9328   0.01014   0.00274  -0.2040  0.1390  0.0186  -1.1615   0.0000   0.0000   0.0000   0.4665
   0.400   0.9438   0.01019   0.00278  -0.2040  0.1369  0.0185  -1.1718   0.0000   0.0000   0.0000   0.4637
   0.500   0.9549   0.01023   0.00281  -0.2040  0.1349  0.0184  -1.1821   0.0000   0.0000   0.0000   0.4611
   0.600   0.9661   0.01027   0.00285  -0.2040  0.1326  0.0183  -1.1924   0.0000   0.0000   0.0000   0.4585
   0.700   0.9772   0.01031   0.00289  -0.2040  0.1302  0.0183  -1.2027   0.0000   0.0000   0.0000   0.4559
   0.800   0.9884   0.01035   0.00292  -0.2040  0.1278  0.0183  -1.2148   0.0000   0.0000   0.0000   0.4534
   0.900   0.9996   0.01039   0.00296  -0.2040  0.1261  0.0187  -1.2272   0.0000   0.0000   0.0000   0.4510
   1.000   1.0108   0.01042   0.00300  -0.2040  0.1245  0.0191  -1.2396   0.0000   0.0000   0.0000   0.4486
   1.100   1.0217   0.01047   0.00302  -0.2040  0.1239  0.0228  -1.2518   0.0000   0.0000   0.0000   0.4462
   1.200   1.0332   0.01049   0.00310  -0.2040  0.1236  0.0265  -1.2643   0.0000   0.0000   0.0000   0.4439
   1.300   1.0446   0.01051   0.00313  -0.2041  0.1232  0.0349  -1.2768   0.0000   0.0000   0.0000   0.4417
   1.400   1.0558   0.01054   0.00317  -0.2041  0.1228  0.0362  -1.2892   0.0000   0.0000   0.0000   0.4395
   1.500   1.0670   0.01058   0.00321  -0.2042  0.1223  0.0370  -1.3016   0.0000   0.0000   0.0000   0.4373
   1.600   1.0781   0.01062   0.00324  -0.2042  0.1218  0.0376  -1.3140   0.0000   0.0000   0.0000   0.4352
   1.700   1.0892   0.01066   0.00328  -0.2042  0.1210  0.0380  -1.3284   0.0000   0.0000   0.0000   0.4332
   1.800   1.1002   0.01070   0.00332  -0.2041  0.1198  0.0383  -1.3437   0.0000   0.0000   0.0000   0.4311
   1.900   1.1112   0.01074   0.00337  -0.2041  0.1188  0.0390  -1.3590   0.0000   0.0000   0.0000   0.4291
   2.000   1.1202   0.01095   0.00351  -0.2037  0.1030  0.0404  -1.3784   0.0000   0.0000   0.0000   0.4272
   2.100   1.1310   0.01101   0.00356  -0.2037  0.1017  0.0424  -1.3933   0.0000   0.0000   0.0000   0.4253
   2.200   1.1417   0.01108   0.00361  -0.2036  0.1004  0.0455  -1.4084   0.0000   0.0000   0.0000   0.4234
   2.300   1.1529   0.01112   0.00369  -0.2037  0.0991  0.0632  -1.4240   0.0000   0.0000   0.0000   0.4215
   2.400   1.1636   0.01119   0.00375  -0.2036  0.0978  0.0656  -1.4393   0.0000   0.0000   0.0000   0.4197
   2.500   1.1742   0.01126   0.00381  -0.2035  0.0961  0.0695  -1.4547   0.0000   0.0000   0.0000   0.4179
   2.600   1.1848   0.01134   0.00388  -0.2034  0.0908  0.0822  -1.4706   0.0000   0.0000   0.0000   0.4162
   2.700   1.1960   0.01139   0.00395  -0.2035  0.0852  0.1033  -1.4866   0.0000   0.0000   0.0000   0.4145
   2.800   1.2069   0.01144   0.00401  -0.2035  0.0839  0.1123  -1.5065   0.0000   0.0000   0.0000   0.4128
   2.900   1.2178   0.01149   0.00407  -0.2035  0.0830  0.1195  -1.5308   0.0000   0.0000   0.0000   0.4111
   3.000   1.2292   0.01152   0.00414  -0.2036  0.0816  0.1431  -1.5554   0.0000   0.0000   0.0000   0.4095
   3.100   1.2398   0.01159   0.00421  -0.2035  0.0792  0.1454  -1.5795   0.0000   0.0000   0.0000   0.4079
   3.200   1.2483   0.01183   0.00438  -0.2030  0.0653  0.1524  -1.6031   0.0000   0.0000   0.0000   0.4063
   3.300   1.2588   0.01191   0.00447  -0.2030  0.0631  0.1647  -1.6226   0.0000   0.0000   0.0000   0.4047
   3.400   1.2700   0.01197   0.00455  -0.2031  0.0610  0.1925  -1.6423   0.0000   0.0000   0.0000   0.4032
   3.500   1.2804   0.01205   0.00462  -0.2029  0.0590  0.1959  -1.6622   0.0000   0.0000   0.0000   0.4017
   3.600   1.2912   0.01210   0.00469  -0.2029  0.0569  0.2112  -1.6834   0.0000   0.0000   0.0000   0.4002
   3.700   1.3027   0.01214   0.00477  -0.2031  0.0548  0.2393  -1.7060   0.0000   0.0000   0.0000   0.3988
   3.800   1.3134   0.01220   0.00484  -0.2030  0.0531  0.2489  -1.7284   0.0000   0.0000   0.0000   0.3973
   3.900   1.3241   0.01224   0.00490  -0.2030  0.0560  0.2478  -1.7551   0.0000   0.0000   0.0000   0.3959
   4.000   1.3349   0.01230   0.00498  -0.2030  0.0550  0.2633  -1.7889   0.0000   0.0000   0.0000   0.3945
   4.100   1.3469   0.01231   0.00506  -0.2033  0.0537  0.3046  -1.8245   0.0000   0.0000   0.0000   0.3932
   4.200   1.3574   0.01238   0.00514  -0.2032  0.0525  0.3108  -1.8580   0.0000   0.0000   0.0000   0.3918
   4.300   1.3686   0.01241   0.00522  -0.2033  0.0517  0.3346  -1.8930   0.0000   0.0000   0.0000   0.3905
   4.400   1.3801   0.01244   0.00530  -0.2034  0.0515  0.3666  -1.9289   0.0000   0.0000   0.0000   0.3893
   4.500   1.3907   0.01251   0.00538  -0.2034  0.0513  0.3782  -1.9637   0.0000   0.0000   0.0000   0.3879
   4.700   1.4123   0.01262   0.00557  -0.2034  0.0502  0.4147  -2.0349   0.0000   0.0000   0.0000   0.3854
   4.800   1.4228   0.01270   0.00567  -0.2033  0.0489  0.4307  -2.0705   0.0000   0.0000   0.0000   0.3841
   4.900   1.4326   0.01281   0.00578  -0.2031  0.0470  0.4377  -2.1054   0.0000   0.0000   0.0000   0.3829
   5.000   1.4426   0.01292   0.00591  -0.2030  0.0449  0.4531  -2.1407   0.0000   0.0000   0.0000   0.3816
   5.100   1.4525   0.01303   0.00603  -0.2028  0.0429  0.4685  -2.1758   0.0000   0.0000   0.0000   0.3804
   5.200   1.4630   0.01311   0.00616  -0.2028  0.0412  0.4954  -2.2117   0.0000   0.0000   0.0000   0.3792
   5.300   1.4730   0.01320   0.00626  -0.2026  0.0396  0.5079  -2.2469   0.0000   0.0000   0.0000   0.3780
   5.400   1.4833   0.01328   0.00637  -0.2025  0.0383  0.5215  -2.2826   0.0000   0.0000   0.0000   0.3768
   5.500   1.4932   0.01337   0.00646  -0.2023  0.0380  0.5252  -2.3185   0.0000   0.0000   0.0000   0.3756
   5.600   1.5030   0.01346   0.00655  -0.2021  0.0378  0.5278  -2.3545   0.0000   0.0000   0.0000   0.3744
   5.700   1.5127   0.01356   0.00664  -0.2018  0.0375  0.5299  -2.3906   0.0000   0.0000   0.0000   0.3733
   5.800   1.5223   0.01365   0.00673  -0.2016  0.0372  0.5317  -2.4268   0.0000   0.0000   0.0000   0.3721
   5.900   1.5319   0.01375   0.00683  -0.2013  0.0368  0.5338  -2.4631   0.0000   0.0000   0.0000   0.3709
   6.000   1.5375   0.01413   0.00715  -0.2004  0.0257  0.5413  -2.5024   0.0000   0.0000   0.0000   0.3697
   6.100   1.5448   0.01439   0.00736  -0.1997  0.0202  0.5455  -2.5196   0.0000   0.0000   0.0000   0.3685
   6.200   1.5537   0.01452   0.00750  -0.1993  0.0170  0.5502  -2.5496   0.0000   0.0000   0.0000   0.3673
   6.300   1.5630   0.01463   0.00762  -0.1990  0.0164  0.5563  -2.5846   0.0000   0.0000   0.0000   0.3662
   6.500   1.5750   0.01527   0.00822  -0.1972  0.0044  0.5644  -2.6528   0.0000   0.0000   0.0000   0.3637
   6.600   1.5837   0.01540   0.00836  -0.1968  0.0042  0.5722  -2.6886   0.0000   0.0000   0.0000   0.3626
   6.700   1.5925   0.01553   0.00851  -0.1964  0.0041  0.5819  -2.7248   0.0000   0.0000   0.0000   0.3615
   6.800   1.6008   0.01566   0.00866  -0.1959  0.0039  0.5882  -2.7603   0.0000   0.0000   0.0000   0.3604
   6.900   1.6085   0.01579   0.00880  -0.1953  0.0037  0.5927  -2.7943   0.0000   0.0000   0.0000   0.3593
   7.000   1.6155   0.01593   0.00893  -0.1946  0.0036  0.5964  -2.8269   0.0000   0.0000   0.0000   0.3581
   7.100   1.6228   0.01606   0.00908  -0.1939  0.0034  0.6041  -2.8601   0.0000   0.0000   0.0000   0.3570
   7.200   1.6305   0.01619   0.00923  -0.1933  0.0032  0.6140  -2.8939   0.0000   0.0000   0.0000   0.3559
   7.300   1.6379   0.01633   0.00938  -0.1927  0.0030  0.6217  -2.9273   0.0000   0.0000   0.0000   0.3548
   7.400   1.6452   0.01647   0.00953  -0.1920  0.0028  0.6268  -2.9603   0.0000   0.0000   0.0000   0.3537
   7.500   1.6523   0.01661   0.00968  -0.1913  0.0026  0.6304  -2.9934   0.0000   0.0000   0.0000   0.3526
   7.600   1.6599   0.01676   0.00984  -0.1907  0.0024  0.6400  -3.0273   0.0000   0.0000   0.0000   0.3516
   7.700   1.6674   0.01690   0.01000  -0.1901  0.0022  0.6475  -3.0613   0.0000   0.0000   0.0000   0.3505
   7.800   1.6747   0.01706   0.01017  -0.1894  0.0020  0.6535  -3.0951   0.0000   0.0000   0.0000   0.3495
   7.900   1.6817   0.01722   0.01033  -0.1887  0.0018  0.6582  -3.1287   0.0000   0.0000   0.0000   0.3484
   8.000   1.6886   0.01738   0.01051  -0.1880  0.0016  0.6629  -3.1624   0.0000   0.0000   0.0000   0.3474
   8.100   1.6958   0.01755   0.01069  -0.1874  0.0014  0.6708  -3.1964   0.0000   0.0000   0.0000   0.3463
   8.200   1.7026   0.01773   0.01088  -0.1867  0.0014  0.6768  -3.2302   0.0000   0.0000   0.0000   0.3453
   8.300   1.7093   0.01792   0.01108  -0.1860  0.0013  0.6819  -3.2638   0.0000   0.0000   0.0000   0.3443
   8.400   1.7161   0.01810   0.01129  -0.1852  0.0014  0.6860  -3.2977   0.0000   0.0000   0.0000   0.3433
   8.500   1.7227   0.01830   0.01150  -0.1845  0.0014  0.6891  -3.3316   0.0000   0.0000   0.0000   0.3422
   8.600   1.7292   0.01850   0.01171  -0.1838  0.0013  0.6915  -3.3652   0.0000   0.0000   0.0000   0.3412
   8.700   1.7357   0.01871   0.01193  -0.1831  0.0013  0.6977  -3.3989   0.0000   0.0000   0.0000   0.3402
   8.800   1.7422   0.01892   0.01216  -0.1824  0.0013  0.7037  -3.4327   0.0000   0.0000   0.0000   0.3393
   8.900   1.7487   0.01914   0.01240  -0.1816  0.0013  0.7090  -3.4665   0.0000   0.0000   0.0000   0.3383
   9.000   1.7549   0.01937   0.01264  -0.1809  0.0013  0.7139  -3.5000   0.0000   0.0000   0.0000   0.3373
   9.100   1.7608   0.01961   0.01290  -0.1801  0.0013  0.7184  -3.5329   0.0000   0.0000   0.0000   0.3363
  10.100   1.8191   0.02240   0.01594  -0.1728  0.0013  0.8056  -3.9298   0.0000   0.0000   0.0000   0.3271
  10.200   1.8249   0.02272   0.01631  -0.1721  0.0013  0.8191  -3.9726   0.0000   0.0000   0.0000   0.3263
  10.300   1.8304   0.02306   0.01668  -0.1714  0.0013  0.8322  -4.0144   0.0000   0.0000   0.0000   0.3254
  10.400   1.8358   0.02342   0.01709  -0.1707  0.0013  0.8503  -4.0557   0.0000   0.0000   0.0000   0.3246


