xflr5 v6.59

 Calculated polar for: WORTMANN FX 63-137 AIRFOIL

 1 1 Reynolds number fixed          Mach number fixed         

 xtrf =   1.000 (top)        1.000 (bottom)
 Mach =   0.000     Re =     1.100 e 6     Ncrit =   9.000

  alpha     CL        CD       CDp       Cm    Top Xtr Bot Xtr   Cpmin    Chinge    XCp    
 ------- -------- --------- --------- -------- ------- ------- -------- --------- ---------
   0.000   0.8967   0.00966   0.00212  -0.2024  0.3936  0.0219  -1.1174   0.0000   0.0000   0.0000   0.4738
   0.200   0.9159   0.00999   0.00228  -0.2018  0.3614  0.0221  -1.1358   0.0000   0.0000   0.0000   0.4682
   0.300   0.9259   0.01012   0.00234  -0.2016  0.3516  0.0223  -1.1452   0.0000   0.0000   0.0000   0.4654
   0.500   0.9452   0.01038   0.00240  -0.2010  0.3374  0.0251  -1.1639   0.0000   0.0000   0.0000   0.4600
   0.600   0.9583   0.01032   0.00245  -0.2015  0.3347  0.0257  -1.1752   0.0000   0.0000   0.0000   0.4575
   0.700   0.9703   0.01032   0.00256  -0.2017  0.3304  0.0336  -1.1861   0.0000   0.0000   0.0000   0.4549
   0.800   0.9807   0.01041   0.00264  -0.2016  0.3193  0.0362  -1.1976   0.0000   0.0000   0.0000   0.4525
   0.900   0.9900   0.01060   0.00274  -0.2013  0.3045  0.0382  -1.2084   0.0000   0.0000   0.0000   0.4501
   1.000   1.0007   0.01068   0.00280  -0.2012  0.2994  0.0444  -1.2201   0.0000   0.0000   0.0000   0.4477
   1.100   1.0111   0.01078   0.00287  -0.2011  0.2933  0.0475  -1.2316   0.0000   0.0000   0.0000   0.4454
   1.200   1.0215   0.01088   0.00295  -0.2010  0.2865  0.0499  -1.2432   0.0000   0.0000   0.0000   0.4431
   1.300   1.0323   0.01095   0.00302  -0.2010  0.2798  0.0580  -1.2553   0.0000   0.0000   0.0000   0.4409
   1.400   1.0436   0.01098   0.00305  -0.2010  0.2774  0.0644  -1.2697   0.0000   0.0000   0.0000   0.4387
   1.500   1.0546   0.01102   0.00310  -0.2010  0.2749  0.0668  -1.2841   0.0000   0.0000   0.0000   0.4365
   1.600   1.0655   0.01108   0.00315  -0.2010  0.2704  0.0715  -1.2984   0.0000   0.0000   0.0000   0.4344
   1.700   1.0750   0.01124   0.00326  -0.2007  0.2545  0.0779  -1.3117   0.0000   0.0000   0.0000   0.4324
   1.800   1.0849   0.01139   0.00337  -0.2005  0.2455  0.0839  -1.3252   0.0000   0.0000   0.0000   0.4304
   1.900   1.0955   0.01147   0.00344  -0.2005  0.2401  0.1014  -1.3393   0.0000   0.0000   0.0000   0.4284
   2.000   1.1058   0.01158   0.00352  -0.2004  0.2348  0.1108  -1.3532   0.0000   0.0000   0.0000   0.4265
   2.100   1.1171   0.01163   0.00361  -0.2005  0.2284  0.1467  -1.3679   0.0000   0.0000   0.0000   0.4246
   2.200   1.1327   0.01148   0.00370  -0.2018  0.2221  0.2728  -1.3856   0.0000   0.0000   0.0000   0.4232
   2.300   1.1498   0.01124   0.00385  -0.2035  0.2204  0.4349  -1.4049   0.0000   0.0000   0.0000   0.4218
   2.400   1.1610   0.01128   0.00392  -0.2036  0.2182  0.4470  -1.4198   0.0000   0.0000   0.0000   0.4200
   2.500   1.1718   0.01135   0.00400  -0.2035  0.2140  0.4575  -1.4363   0.0000   0.0000   0.0000   0.4183
   2.600   1.1806   0.01157   0.00416  -0.2031  0.1975  0.4646  -1.4520   0.0000   0.0000   0.0000   0.4165
   2.700   1.1905   0.01171   0.00427  -0.2029  0.1916  0.4722  -1.4687   0.0000   0.0000   0.0000   0.4148
   2.800   1.2007   0.01182   0.00437  -0.2028  0.1873  0.4817  -1.4857   0.0000   0.0000   0.0000   0.4131
   2.900   1.2107   0.01194   0.00447  -0.2026  0.1830  0.4894  -1.5040   0.0000   0.0000   0.0000   0.4114
   3.000   1.2206   0.01206   0.00457  -0.2024  0.1782  0.4949  -1.5247   0.0000   0.0000   0.0000   0.4097
   3.100   1.2307   0.01217   0.00466  -0.2022  0.1733  0.4988  -1.5457   0.0000   0.0000   0.0000   0.4081
   3.200   1.2412   0.01224   0.00474  -0.2021  0.1701  0.5035  -1.5672   0.0000   0.0000   0.0000   0.4064
   3.300   1.2519   0.01230   0.00481  -0.2021  0.1690  0.5099  -1.5891   0.0000   0.0000   0.0000   0.4049
   3.400   1.2625   0.01236   0.00489  -0.2020  0.1676  0.5156  -1.6109   0.0000   0.0000   0.0000   0.4033
   3.500   1.2730   0.01243   0.00496  -0.2019  0.1654  0.5208  -1.6326   0.0000   0.0000   0.0000   0.4018
   3.600   1.2832   0.01252   0.00505  -0.2018  0.1619  0.5251  -1.6541   0.0000   0.0000   0.0000   0.4002
   3.700   1.2910   0.01280   0.00524  -0.2012  0.1458  0.5284  -1.6729   0.0000   0.0000   0.0000   0.3987
   3.800   1.3004   0.01294   0.00536  -0.2009  0.1421  0.5313  -1.6935   0.0000   0.0000   0.0000   0.3972
   3.900   1.3094   0.01312   0.00549  -0.2005  0.1370  0.5354  -1.7231   0.0000   0.0000   0.0000   0.3957
   4.000   1.3197   0.01320   0.00560  -0.2004  0.1361  0.5405  -1.7557   0.0000   0.0000   0.0000   0.3943
   4.100   1.3296   0.01331   0.00572  -0.2002  0.1324  0.5504  -1.7877   0.0000   0.0000   0.0000   0.3929
   4.200   1.3393   0.01343   0.00583  -0.2000  0.1281  0.5593  -1.8198   0.0000   0.0000   0.0000   0.3914
   4.300   1.3490   0.01353   0.00594  -0.1997  0.1240  0.5653  -1.8520   0.0000   0.0000   0.0000   0.3900
   4.400   1.3594   0.01361   0.00605  -0.1996  0.1225  0.5770  -1.8855   0.0000   0.0000   0.0000   0.3887
   4.500   1.3693   0.01371   0.00617  -0.1994  0.1194  0.5865  -1.9183   0.0000   0.0000   0.0000   0.3873
   4.600   1.3760   0.01404   0.00642  -0.1987  0.1027  0.5931  -1.9460   0.0000   0.0000   0.0000   0.3859
   4.800   1.3924   0.01446   0.00676  -0.1977  0.0929  0.6057  -2.0066   0.0000   0.0000   0.0000   0.3832
   4.900   1.4014   0.01462   0.00691  -0.1974  0.0870  0.6121  -2.0383   0.0000   0.0000   0.0000   0.3819
   5.000   1.4109   0.01473   0.00703  -0.1971  0.0841  0.6179  -2.0712   0.0000   0.0000   0.0000   0.3806
   5.100   1.4204   0.01483   0.00715  -0.1968  0.0830  0.6230  -2.1046   0.0000   0.0000   0.0000   0.3793
   5.200   1.4296   0.01495   0.00726  -0.1965  0.0814  0.6269  -2.1376   0.0000   0.0000   0.0000   0.3781
   5.300   1.4387   0.01507   0.00739  -0.1961  0.0791  0.6303  -2.1703   0.0000   0.0000   0.0000   0.3768
   5.400   1.4473   0.01524   0.00757  -0.1957  0.0725  0.6372  -2.2024   0.0000   0.0000   0.0000   0.3755
   5.500   1.4546   0.01549   0.00779  -0.1951  0.0660  0.6429  -2.2324   0.0000   0.0000   0.0000   0.3743
   5.600   1.4630   0.01565   0.00793  -0.1946  0.0644  0.6481  -2.2645   0.0000   0.0000   0.0000   0.3730
   5.700   1.4713   0.01581   0.00807  -0.1941  0.0628  0.6527  -2.2964   0.0000   0.0000   0.0000   0.3718
   5.800   1.4795   0.01598   0.00822  -0.1936  0.0609  0.6565  -2.3281   0.0000   0.0000   0.0000   0.3706
   5.900   1.4872   0.01615   0.00838  -0.1930  0.0585  0.6595  -2.3591   0.0000   0.0000   0.0000   0.3693
   6.100   1.5025   0.01644   0.00869  -0.1918  0.0543  0.6679  -2.4206   0.0000   0.0000   0.0000   0.3669
   6.200   1.5099   0.01659   0.00888  -0.1912  0.0516  0.6722  -2.4521   0.0000   0.0000   0.0000   0.3656
   6.300   1.5179   0.01672   0.00903  -0.1906  0.0512  0.6765  -2.4868   0.0000   0.0000   0.0000   0.3645
   6.400   1.5257   0.01686   0.00919  -0.1900  0.0507  0.6809  -2.5205   0.0000   0.0000   0.0000   0.3633
   6.500   1.5333   0.01700   0.00935  -0.1894  0.0500  0.6850  -2.5539   0.0000   0.0000   0.0000   0.3621
   6.600   1.5407   0.01716   0.00951  -0.1888  0.0492  0.6887  -2.5870   0.0000   0.0000   0.0000   0.3609
   6.800   1.5555   0.01748   0.00985  -0.1875  0.0473  0.6976  -2.6531   0.0000   0.0000   0.0000   0.3586
   6.900   1.5627   0.01766   0.01005  -0.1869  0.0462  0.7028  -2.6860   0.0000   0.0000   0.0000   0.3575
   7.000   1.5696   0.01785   0.01025  -0.1862  0.0451  0.7078  -2.7185   0.0000   0.0000   0.0000   0.3564
   7.100   1.5762   0.01806   0.01047  -0.1854  0.0438  0.7128  -2.7506   0.0000   0.0000   0.0000   0.3552
   7.200   1.5825   0.01828   0.01069  -0.1846  0.0425  0.7175  -2.7824   0.0000   0.0000   0.0000   0.3541
   7.400   1.5955   0.01871   0.01114  -0.1832  0.0396  0.7293  -2.8462   0.0000   0.0000   0.0000   0.3519
   7.500   1.6025   0.01891   0.01135  -0.1825  0.0384  0.7363  -2.8787   0.0000   0.0000   0.0000   0.3508
   7.600   1.6097   0.01909   0.01155  -0.1819  0.0380  0.7433  -2.9130   0.0000   0.0000   0.0000   0.3497
   7.700   1.6167   0.01927   0.01174  -0.1813  0.0376  0.7495  -2.9474   0.0000   0.0000   0.0000   0.3487
   7.800   1.6239   0.01946   0.01196  -0.1807  0.0372  0.7575  -2.9822   0.0000   0.0000   0.0000   0.3476
   7.900   1.6308   0.01966   0.01218  -0.1800  0.0366  0.7659  -3.0169   0.0000   0.0000   0.0000   0.3466
   8.000   1.6376   0.01987   0.01240  -0.1794  0.0357  0.7740  -3.0518   0.0000   0.0000   0.0000   0.3456
   8.100   1.6441   0.02010   0.01265  -0.1787  0.0344  0.7825  -3.0871   0.0000   0.0000   0.0000   0.3446
   8.200   1.6485   0.02045   0.01299  -0.1777  0.0306  0.7923  -3.1227   0.0000   0.0000   0.0000   0.3435
   8.300   1.6489   0.02104   0.01353  -0.1761  0.0245  0.8015  -3.1523   0.0000   0.0000   0.0000   0.3423
   8.400   1.6521   0.02148   0.01395  -0.1750  0.0209  0.8114  -3.1661   0.0000   0.0000   0.0000   0.3413
   8.500   1.6565   0.02184   0.01432  -0.1740  0.0172  0.8229  -3.1810   0.0000   0.0000   0.0000   0.3402
   8.600   1.6623   0.02213   0.01463  -0.1733  0.0160  0.8355  -3.2108   0.0000   0.0000   0.0000   0.3392
   8.900   1.6742   0.02266   0.01543  -0.1699  0.0164  1.0000  -3.2947   0.0000   0.0000   0.0000   0.3359
   9.000   1.6784   0.02309   0.01585  -0.1690  0.0140  1.0000  -3.3232   0.0000   0.0000   0.0000   0.3350
   9.100   1.6731   0.02417   0.01692  -0.1669  0.0045  1.0000  -3.3405   0.0000   0.0000   0.0000   0.3338
   9.200   1.6775   0.02460   0.01736  -0.1660  0.0042  1.0000  -3.3709   0.0000   0.0000   0.0000   0.3329
   9.300   1.6817   0.02505   0.01781  -0.1652  0.0039  1.0000  -3.4017   0.0000   0.0000   0.0000   0.3320
   9.400   1.6867   0.02545   0.01821  -0.1645  0.0034  1.0000  -3.4306   0.0000   0.0000   0.0000   0.3311
   9.500   1.6921   0.02581   0.01858  -0.1638  0.0027  1.0000  -3.4569   0.0000   0.0000   0.0000   0.3302
   9.600   1.6971   0.02620   0.01899  -0.1632  0.0023  1.0000  -3.4857   0.0000   0.0000   0.0000   0.3293
   9.700   1.7018   0.02662   0.01943  -0.1624  0.0021  1.0000  -3.5149   0.0000   0.0000   0.0000   0.3284
   9.800   1.7062   0.02707   0.01989  -0.1617  0.0020  1.0000  -3.5439   0.0000   0.0000   0.0000   0.3275
   9.900   1.7106   0.02752   0.02036  -0.1610  0.0019  1.0000  -3.5728   0.0000   0.0000   0.0000   0.3267
  10.000   1.7152   0.02797   0.02083  -0.1603  0.0019  1.0000  -3.6031   0.0000   0.0000   0.0000   0.3258
  10.100   1.7200   0.02842   0.02129  -0.1596  0.0018  1.0000  -3.6403   0.0000   0.0000   0.0000   0.3250
  10.200   1.7245   0.02888   0.02178  -0.1590  0.0018  1.0000  -3.6774   0.0000   0.0000   0.0000   0.3242
  10.300   1.7288   0.02937   0.02230  -0.1583  0.0018  1.0000  -3.7141   0.0000   0.0000   0.0000   0.3233
  10.400   1.7332   0.02987   0.02282  -0.1576  0.0018  1.0000  -3.7511   0.0000   0.0000   0.0000   0.3225
  10.500   1.7376   0.03036   0.02333  -0.1570  0.0018  1.0000  -3.7885   0.0000   0.0000   0.0000   0.3217
  10.600   1.7421   0.03087   0.02386  -0.1564  0.0018  1.0000  -3.8260   0.0000   0.0000   0.0000   0.3210
  10.700   1.7461   0.03141   0.02443  -0.1558  0.0018  1.0000  -3.8623   0.0000   0.0000   0.0000   0.3202
  10.800   1.7500   0.03197   0.02502  -0.1551  0.0018  1.0000  -3.8986   0.0000   0.0000   0.0000   0.3194
  10.900   1.7540   0.03253   0.02559  -0.1545  0.0018  1.0000  -3.9352   0.0000   0.0000   0.0000   0.3187
  11.000   1.7581   0.03308   0.02617  -0.1539  0.0018  1.0000  -3.9721   0.0000   0.0000   0.0000   0.3179
  11.100   1.7620   0.03365   0.02677  -0.1533  0.0018  1.0000  -4.0086   0.0000   0.0000   0.0000   0.3172
  11.200   1.7654   0.03428   0.02743  -0.1527  0.0018  1.0000  -4.0437   0.0000   0.0000   0.0000   0.3164
  11.300   1.7688   0.03492   0.02810  -0.1521  0.0018  1.0000  -4.0787   0.0000   0.0000   0.0000   0.3157
  11.400   1.7722   0.03555   0.02878  -0.1515  0.0018  1.0000  -4.1133   0.0000   0.0000   0.0000   0.3150
  11.500   1.7757   0.03619   0.02944  -0.1509  0.0018  1.0000  -4.1487   0.0000   0.0000   0.0000   0.3143
  11.600   1.7787   0.03687   0.03015  -0.1503  0.0018  1.0000  -4.1830   0.0000   0.0000   0.0000   0.3136
  11.700   1.7813   0.03760   0.03092  -0.1497  0.0018  1.0000  -4.2160   0.0000   0.0000   0.0000   0.3129
  11.800   1.7840   0.03833   0.03167  -0.1491  0.0019  1.0000  -4.2495   0.0000   0.0000   0.0000   0.3122
  11.900   1.7868   0.03904   0.03242  -0.1485  0.0019  1.0000  -4.2834   0.0000   0.0000   0.0000   0.3116
  12.000   1.7897   0.03976   0.03317  -0.1479  0.0019  1.0000  -4.3214   0.0000   0.0000   0.0000   0.3109
  12.100   1.7922   0.04052   0.03396  -0.1474  0.0019  1.0000  -4.3841   0.0000   0.0000   0.0000   0.3102
  12.200   1.7939   0.04137   0.03484  -0.1468  0.0019  1.0000  -4.4430   0.0000   0.0000   0.0000   0.3096
  12.300   1.7956   0.04222   0.03572  -0.1462  0.0019  1.0000  -4.5019   0.0000   0.0000   0.0000   0.3090
  12.400   1.7974   0.04305   0.03658  -0.1456  0.0020  1.0000  -4.5620   0.0000   0.0000   0.0000   0.3084
  12.500   1.7993   0.04387   0.03744  -0.1450  0.0020  1.0000  -4.6227   0.0000   0.0000   0.0000   0.3077
  12.600   1.8009   0.04474   0.03835  -0.1445  0.0020  1.0000  -4.6822   0.0000   0.0000   0.0000   0.3071
  12.700   1.8016   0.04573   0.03937  -0.1439  0.0020  1.0000  -4.7375   0.0000   0.0000   0.0000   0.3066
  12.800   1.8028   0.04669   0.04037  -0.1434  0.0021  1.0000  -4.7949   0.0000   0.0000   0.0000   0.3060
  12.900   1.8042   0.04762   0.04133  -0.1429  0.0021  1.0000  -4.8543   0.0000   0.0000   0.0000   0.3054
  13.000   1.8059   0.04855   0.04228  -0.1424  0.0021  1.0000  -4.9148   0.0000   0.0000   0.0000   0.3049
  13.100   1.8075   0.04948   0.04325  -0.1419  0.0021  1.0000  -4.9752   0.0000   0.0000   0.0000   0.3043
  13.200   1.8084   0.05053   0.04433  -0.1415  0.0022  1.0000  -5.0319   0.0000   0.0000   0.0000   0.3038
  13.300   1.8085   0.05167   0.04551  -0.1410  0.0022  1.0000  -5.0848   0.0000   0.0000   0.0000   0.3033
  13.400   1.8091   0.05277   0.04665  -0.1406  0.0022  1.0000  -5.1399   0.0000   0.0000   0.0000   0.3028
  13.500   1.8099   0.05385   0.04776  -0.1402  0.0023  1.0000  -5.1963   0.0000   0.0000   0.0000   0.3023
  13.600   1.8107   0.05493   0.04888  -0.1398  0.0023  1.0000  -5.2528   0.0000   0.0000   0.0000   0.3018
  13.700   1.8110   0.05609   0.05008  -0.1394  0.0024  1.0000  -5.3063   0.0000   0.0000   0.0000   0.3013
  13.800   1.8102   0.05742   0.05145  -0.1390  0.0024  1.0000  -5.3534   0.0000   0.0000   0.0000   0.3009
  13.900   1.8100   0.05866   0.05273  -0.1387  0.0024  1.0000  -5.4037   0.0000   0.0000   0.0000   0.3005
  14.000   1.8103   0.05985   0.05396  -0.1384  0.0025  1.0000  -5.4561   0.0000   0.0000   0.0000   0.3001
  14.100   1.8106   0.06103   0.05517  -0.1380  0.0025  1.0000  -5.5083   0.0000   0.0000   0.0000   0.2996
  14.200   1.8111   0.06221   0.05639  -0.1377  0.0026  1.0000  -5.5598   0.0000   0.0000   0.0000   0.2992
  14.300   1.8108   0.06351   0.05773  -0.1374  0.0027  1.0000  -5.6062   0.0000   0.0000   0.0000   0.2988
  14.400   1.8096   0.06496   0.05921  -0.1372  0.0027  1.0000  -5.6465   0.0000   0.0000   0.0000   0.2985
  14.500   1.8096   0.06625   0.06054  -0.1370  0.0028  1.0000  -5.6902   0.0000   0.0000   0.0000   0.2981
  14.600   1.8103   0.06745   0.06176  -0.1368  0.0029  1.0000  -5.7348   0.0000   0.0000   0.0000   0.2978
  14.700   1.8115   0.06857   0.06291  -0.1366  0.0030  1.0000  -5.7797   0.0000   0.0000   0.0000   0.2973
  14.800   1.8128   0.06969   0.06407  -0.1364  0.0031  1.0000  -5.8279   0.0000   0.0000   0.0000   0.2969
  14.900   1.8130   0.07100   0.06541  -0.1363  0.0032  1.0000  -5.8679   0.0000   0.0000   0.0000   0.2966
  15.000   1.8129   0.07236   0.06680  -0.1362  0.0033  1.0000  -5.9066   0.0000   0.0000   0.0000   0.2963
  15.100   1.8138   0.07357   0.06804  -0.1360  0.0035  1.0000  -5.9501   0.0000   0.0000   0.0000   0.2959
  15.200   1.8152   0.07471   0.06921  -0.1359  0.0036  1.0000  -5.9962   0.0000   0.0000   0.0000   0.2956
  15.300   1.8177   0.07570   0.07023  -0.1358  0.0037  1.0000  -6.0474   0.0000   0.0000   0.0000   0.2951
  15.400   1.8203   0.07667   0.07124  -0.1357  0.0039  1.0000  -6.0994   0.0000   0.0000   0.0000   0.2947
  15.500   1.8227   0.07768   0.07230  -0.1355  0.0040  1.0000  -6.1496   0.0000   0.0000   0.0000   0.2943
  15.600   1.8238   0.07886   0.07352  -0.1354  0.0042  1.0000  -6.1930   0.0000   0.0000   0.0000   0.2939
  15.700   1.8222   0.08041   0.07514  -0.1354  0.0043  1.0000  -6.2226   0.0000   0.0000   0.0000   0.2937
  15.800   1.8212   0.08191   0.07670  -0.1354  0.0044  1.0000  -6.2500   0.0000   0.0000   0.0000   0.2935
  15.900   1.8188   0.08364   0.07857  -0.1353  0.0047  1.0000  -6.2286   0.0000   0.0000   0.0000   0.2933
  16.000   1.8188   0.08496   0.07992  -0.1353  0.0049  1.0000  -6.2809   0.0000   0.0000   0.0000   0.2930
  16.100   1.8185   0.08635   0.08134  -0.1353  0.0050  1.0000  -6.3310   0.0000   0.0000   0.0000   0.2927
  16.200   1.8157   0.08817   0.08321  -0.1355  0.0051  1.0000  -6.3656   0.0000   0.0000   0.0000   0.2927
  16.300   1.8138   0.08986   0.08494  -0.1356  0.0052  1.0000  -6.4058   0.0000   0.0000   0.0000   0.2926
  16.400   1.8128   0.09140   0.08651  -0.1357  0.0053  1.0000  -6.4508   0.0000   0.0000   0.0000   0.2924
  16.500   1.8118   0.09292   0.08807  -0.1358  0.0055  1.0000  -6.4962   0.0000   0.0000   0.0000   0.2922
  16.600   1.8107   0.09447   0.08967  -0.1359  0.0056  1.0000  -6.5399   0.0000   0.0000   0.0000   0.2921
  16.700   1.8092   0.09609   0.09133  -0.1361  0.0058  1.0000  -6.5814   0.0000   0.0000   0.0000   0.2920
  16.800   1.8050   0.09822   0.09351  -0.1364  0.0059  1.0000  -6.6052   0.0000   0.0000   0.0000   0.2921
  16.900   1.8015   0.10021   0.09556  -0.1368  0.0061  1.0000  -6.6325   0.0000   0.0000   0.0000   0.2921
  17.000   1.7986   0.10208   0.09748  -0.1371  0.0063  1.0000  -6.6633   0.0000   0.0000   0.0000   0.2922
  17.100   1.7958   0.10394   0.09940  -0.1374  0.0065  1.0000  -6.6934   0.0000   0.0000   0.0000   0.2922
  17.200   1.7921   0.10598   0.10150  -0.1378  0.0067  1.0000  -6.7162   0.0000   0.0000   0.0000   0.2923
  17.300   1.7866   0.10838   0.10397  -0.1383  0.0070  1.0000  -6.7254   0.0000   0.0000   0.0000   0.2926
  17.400   1.7962   0.10846   0.10413  -0.1381  0.0086  1.0000  -6.7753   0.0000   0.0000   0.0000   0.2917
  17.500   1.7963   0.10998   0.10571  -0.1383  0.0092  1.0000  -6.7950   0.0000   0.0000   0.0000   0.2915
  17.600   1.7930   0.11197   0.10777  -0.1387  0.0095  1.0000  -6.8033   0.0000   0.0000   0.0000   0.2916
  17.700   1.7880   0.11423   0.11011  -0.1392  0.0096  1.0000  -6.8031   0.0000   0.0000   0.0000   0.2918
  17.800   1.7814   0.11674   0.11269  -0.1398  0.0097  1.0000  -6.7947   0.0000   0.0000   0.0000   0.2922
  17.900   1.7727   0.11967   0.11570  -0.1407  0.0098  1.0000  -6.7768   0.0000   0.0000   0.0000   0.2928
  18.000   1.7647   0.12245   0.11855  -0.1416  0.0098  1.0000  -6.7581   0.0000   0.0000   0.0000   0.2934


