xflr5 v6.59

 Calculated polar for: WORTMANN FX 63-137 AIRFOIL

 1 1 Reynolds number fixed          Mach number fixed         

 xtrf =   1.000 (top)        1.000 (bottom)
 Mach =   0.000     Re =     0.400 e 6     Ncrit =   9.000

  alpha     CL        CD       CDp       Cm    Top Xtr Bot Xtr   Cpmin    Chinge    XCp    
 ------- -------- --------- --------- -------- ------- ------- -------- --------- ---------
   0.000   0.9000   0.01026   0.00269  -0.2027  0.6412  0.1265  -1.1086   0.0000   0.0000   0.0000   0.4734
   0.100   0.9119   0.01024   0.00270  -0.2029  0.6374  0.1553  -1.1191   0.0000   0.0000   0.0000   0.4705
   0.200   0.9244   0.01018   0.00271  -0.2033  0.6335  0.1947  -1.1299   0.0000   0.0000   0.0000   0.4678
   0.300   0.9374   0.01010   0.00274  -0.2039  0.6298  0.2464  -1.1410   0.0000   0.0000   0.0000   0.4652
   0.400   0.9508   0.00998   0.00278  -0.2045  0.6269  0.3012  -1.1524   0.0000   0.0000   0.0000   0.4627
   0.500   0.9639   0.00989   0.00284  -0.2051  0.6237  0.3477  -1.1636   0.0000   0.0000   0.0000   0.4602
   0.600   0.9759   0.00987   0.00289  -0.2053  0.6203  0.3787  -1.1742   0.0000   0.0000   0.0000   0.4577
   0.700   0.9879   0.00986   0.00295  -0.2056  0.6167  0.4062  -1.1866   0.0000   0.0000   0.0000   0.4552
   0.800   0.9994   0.00986   0.00302  -0.2057  0.6130  0.4328  -1.1989   0.0000   0.0000   0.0000   0.4528
   0.900   1.0110   0.00987   0.00314  -0.2058  0.6089  0.4711  -1.2113   0.0000   0.0000   0.0000   0.4504
   1.000   1.0218   0.00992   0.00321  -0.2057  0.6038  0.4952  -1.2231   0.0000   0.0000   0.0000   0.4481
   1.100   1.0322   0.00999   0.00330  -0.2056  0.5982  0.5156  -1.2347   0.0000   0.0000   0.0000   0.4457
   1.200   1.0432   0.01003   0.00337  -0.2055  0.5938  0.5328  -1.2467   0.0000   0.0000   0.0000   0.4434
   1.300   1.0542   0.01005   0.00347  -0.2055  0.5881  0.5482  -1.2593   0.0000   0.0000   0.0000   0.4412
   1.400   1.0647   0.01012   0.00354  -0.2053  0.5812  0.5592  -1.2733   0.0000   0.0000   0.0000   0.4390
   1.500   1.0748   0.01021   0.00358  -0.2051  0.5736  0.5650  -1.2870   0.0000   0.0000   0.0000   0.4368
   1.600   1.0847   0.01029   0.00364  -0.2048  0.5665  0.5714  -1.3005   0.0000   0.0000   0.0000   0.4346
   1.700   1.0951   0.01035   0.00372  -0.2046  0.5612  0.5783  -1.3145   0.0000   0.0000   0.0000   0.4326
   1.800   1.1055   0.01042   0.00379  -0.2044  0.5558  0.5858  -1.3286   0.0000   0.0000   0.0000   0.4305
   1.900   1.1157   0.01051   0.00386  -0.2042  0.5500  0.5928  -1.3424   0.0000   0.0000   0.0000   0.4285
   2.000   1.1256   0.01062   0.00393  -0.2039  0.5438  0.5989  -1.3561   0.0000   0.0000   0.0000   0.4265
   2.100   1.1351   0.01072   0.00402  -0.2036  0.5373  0.6062  -1.3695   0.0000   0.0000   0.0000   0.4245
   2.200   1.1448   0.01082   0.00411  -0.2033  0.5316  0.6131  -1.3830   0.0000   0.0000   0.0000   0.4225
   2.300   1.1554   0.01088   0.00423  -0.2031  0.5267  0.6201  -1.3973   0.0000   0.0000   0.0000   0.4207
   2.400   1.1658   0.01096   0.00430  -0.2030  0.5197  0.6260  -1.4114   0.0000   0.0000   0.0000   0.4188
   2.500   1.1757   0.01107   0.00437  -0.2027  0.5111  0.6310  -1.4263   0.0000   0.0000   0.0000   0.4170
   2.600   1.1847   0.01118   0.00446  -0.2023  0.5021  0.6367  -1.4423   0.0000   0.0000   0.0000   0.4152
   2.700   1.1943   0.01128   0.00455  -0.2020  0.4952  0.6414  -1.4588   0.0000   0.0000   0.0000   0.4134
   2.800   1.2041   0.01138   0.00463  -0.2017  0.4885  0.6456  -1.4755   0.0000   0.0000   0.0000   0.4116
   2.900   1.2137   0.01150   0.00472  -0.2014  0.4819  0.6494  -1.4920   0.0000   0.0000   0.0000   0.4099
   3.000   1.2232   0.01163   0.00480  -0.2011  0.4754  0.6525  -1.5084   0.0000   0.0000   0.0000   0.4082
   3.100   1.2325   0.01176   0.00488  -0.2007  0.4692  0.6554  -1.5282   0.0000   0.0000   0.0000   0.4066
   3.200   1.2430   0.01184   0.00496  -0.2006  0.4648  0.6583  -1.5495   0.0000   0.0000   0.0000   0.4050
   3.400   1.2640   0.01197   0.00509  -0.2004  0.4528  0.6646  -1.5923   0.0000   0.0000   0.0000   0.4018
   3.500   1.2734   0.01208   0.00519  -0.2001  0.4439  0.6680  -1.6128   0.0000   0.0000   0.0000   0.4003
   3.700   1.2915   0.01236   0.00539  -0.1994  0.4286  0.6746  -1.6529   0.0000   0.0000   0.0000   0.3972
   3.800   1.3010   0.01249   0.00550  -0.1991  0.4225  0.6779  -1.6813   0.0000   0.0000   0.0000   0.3957
   3.900   1.3102   0.01263   0.00560  -0.1987  0.4163  0.6812  -1.7119   0.0000   0.0000   0.0000   0.3942
   4.000   1.3192   0.01279   0.00576  -0.1983  0.4101  0.6844  -1.7423   0.0000   0.0000   0.0000   0.3927
   4.100   1.3281   0.01294   0.00587  -0.1980  0.4039  0.6874  -1.7727   0.0000   0.0000   0.0000   0.3913
   4.200   1.3384   0.01303   0.00596  -0.1978  0.3998  0.6902  -1.8054   0.0000   0.0000   0.0000   0.3899
   4.300   1.3487   0.01310   0.00604  -0.1977  0.3949  0.6935  -1.8382   0.0000   0.0000   0.0000   0.3885
   4.400   1.3584   0.01319   0.00614  -0.1975  0.3876  0.6971  -1.8703   0.0000   0.0000   0.0000   0.3871
   4.500   1.3670   0.01335   0.00627  -0.1970  0.3776  0.7006  -1.9009   0.0000   0.0000   0.0000   0.3858
   4.600   1.3749   0.01355   0.00642  -0.1965  0.3686  0.7040  -1.9304   0.0000   0.0000   0.0000   0.3844
   4.700   1.3837   0.01370   0.00655  -0.1961  0.3620  0.7077  -1.9615   0.0000   0.0000   0.0000   0.3830
   4.800   1.3924   0.01387   0.00669  -0.1957  0.3555  0.7115  -1.9925   0.0000   0.0000   0.0000   0.3817
   4.900   1.4006   0.01406   0.00684  -0.1952  0.3489  0.7152  -2.0230   0.0000   0.0000   0.0000   0.3804
   5.000   1.4088   0.01426   0.00699  -0.1947  0.3423  0.7189  -2.0534   0.0000   0.0000   0.0000   0.3791
   5.100   1.4181   0.01438   0.00711  -0.1944  0.3376  0.7226  -2.0858   0.0000   0.0000   0.0000   0.3778
   5.200   1.4278   0.01445   0.00721  -0.1941  0.3331  0.7268  -2.1190   0.0000   0.0000   0.0000   0.3765
   5.300   1.4369   0.01457   0.00734  -0.1938  0.3253  0.7311  -2.1514   0.0000   0.0000   0.0000   0.3753
   5.400   1.4441   0.01480   0.00753  -0.1931  0.3121  0.7358  -2.1808   0.0000   0.0000   0.0000   0.3740
   5.500   1.4509   0.01506   0.00773  -0.1924  0.3030  0.7409  -2.2096   0.0000   0.0000   0.0000   0.3727
   5.600   1.4584   0.01528   0.00790  -0.1918  0.2955  0.7462  -2.2396   0.0000   0.0000   0.0000   0.3715
   5.700   1.4655   0.01552   0.00810  -0.1912  0.2882  0.7512  -2.2691   0.0000   0.0000   0.0000   0.3702
   5.800   1.4724   0.01574   0.00830  -0.1904  0.2810  0.7565  -2.2982   0.0000   0.0000   0.0000   0.3690
   5.900   1.4809   0.01587   0.00845  -0.1900  0.2764  0.7622  -2.3302   0.0000   0.0000   0.0000   0.3677
   6.000   1.4896   0.01599   0.00859  -0.1896  0.2709  0.7684  -2.3627   0.0000   0.0000   0.0000   0.3666
   6.100   1.4964   0.01622   0.00878  -0.1888  0.2573  0.7744  -2.3920   0.0000   0.0000   0.0000   0.3653
   6.200   1.4991   0.01662   0.00909  -0.1874  0.2438  0.7799  -2.4145   0.0000   0.0000   0.0000   0.3640
   6.300   1.4972   0.01727   0.00960  -0.1852  0.2218  0.7855  -2.4289   0.0000   0.0000   0.0000   0.3626
   6.500   1.5003   0.01825   0.01038  -0.1821  0.1833  0.7991  -2.4699   0.0000   0.0000   0.0000   0.3599
   6.600   1.5024   0.01874   0.01076  -0.1807  0.1701  0.8060  -2.4911   0.0000   0.0000   0.0000   0.3587
   6.700   1.5083   0.01897   0.01100  -0.1799  0.1586  0.8139  -2.5193   0.0000   0.0000   0.0000   0.3575
   6.800   1.5086   0.01954   0.01148  -0.1782  0.1413  0.8226  -2.5376   0.0000   0.0000   0.0000   0.3562
   6.900   1.5103   0.02004   0.01190  -0.1767  0.1323  0.8319  -2.5581   0.0000   0.0000   0.0000   0.3549
   7.000   1.5136   0.02040   0.01225  -0.1755  0.1240  0.8431  -2.5816   0.0000   0.0000   0.0000   0.3537
   7.100   1.5197   0.02059   0.01247  -0.1747  0.1201  0.8568  -2.6103   0.0000   0.0000   0.0000   0.3525
   7.200   1.5240   0.02080   0.01272  -0.1736  0.1128  0.8758  -2.6358   0.0000   0.0000   0.0000   0.3513
   7.400   1.5227   0.02129   0.01323  -0.1695  0.1007  1.0000  -2.6697   0.0000   0.0000   0.0000   0.3484
   7.500   1.5278   0.02167   0.01358  -0.1687  0.0982  1.0000  -2.6965   0.0000   0.0000   0.0000   0.3474
   7.600   1.5327   0.02206   0.01393  -0.1679  0.0955  1.0000  -2.7229   0.0000   0.0000   0.0000   0.3463
   7.700   1.5376   0.02244   0.01429  -0.1671  0.0929  1.0000  -2.7493   0.0000   0.0000   0.0000   0.3453
   7.800   1.5429   0.02281   0.01465  -0.1663  0.0900  1.0000  -2.7763   0.0000   0.0000   0.0000   0.3442
   7.900   1.5486   0.02315   0.01498  -0.1657  0.0874  1.0000  -2.8042   0.0000   0.0000   0.0000   0.3432
   8.000   1.5547   0.02347   0.01530  -0.1650  0.0851  1.0000  -2.8327   0.0000   0.0000   0.0000   0.3422
   8.100   1.5612   0.02375   0.01560  -0.1645  0.0840  1.0000  -2.8624   0.0000   0.0000   0.0000   0.3412
   8.200   1.5679   0.02403   0.01590  -0.1639  0.0832  1.0000  -2.8925   0.0000   0.0000   0.0000   0.3403
   8.300   1.5744   0.02432   0.01620  -0.1634  0.0820  1.0000  -2.9224   0.0000   0.0000   0.0000   0.3393
   8.400   1.5807   0.02463   0.01653  -0.1628  0.0804  1.0000  -2.9519   0.0000   0.0000   0.0000   0.3384
   8.500   1.5866   0.02497   0.01688  -0.1622  0.0781  1.0000  -2.9807   0.0000   0.0000   0.0000   0.3374
   8.600   1.5916   0.02537   0.01729  -0.1615  0.0735  1.0000  -3.0082   0.0000   0.0000   0.0000   0.3365
   8.700   1.5943   0.02595   0.01783  -0.1605  0.0667  1.0000  -3.0321   0.0000   0.0000   0.0000   0.3355
   8.800   1.5978   0.02647   0.01833  -0.1597  0.0653  1.0000  -3.0574   0.0000   0.0000   0.0000   0.3346
   8.900   1.6009   0.02702   0.01886  -0.1588  0.0639  1.0000  -3.0821   0.0000   0.0000   0.0000   0.3337
   9.000   1.6040   0.02758   0.01939  -0.1580  0.0624  1.0000  -3.1066   0.0000   0.0000   0.0000   0.3328
   9.100   1.6070   0.02816   0.01994  -0.1571  0.0607  1.0000  -3.1306   0.0000   0.0000   0.0000   0.3319
   9.200   1.6123   0.02855   0.02041  -0.1565  0.0607  1.0000  -3.1580   0.0000   0.0000   0.0000   0.3310
   9.300   1.6163   0.02906   0.02093  -0.1558  0.0597  1.0000  -3.1832   0.0000   0.0000   0.0000   0.3301
   9.400   1.6200   0.02960   0.02147  -0.1550  0.0582  1.0000  -3.2080   0.0000   0.0000   0.0000   0.3292
   9.500   1.6237   0.03015   0.02202  -0.1543  0.0567  1.0000  -3.2325   0.0000   0.0000   0.0000   0.3284
   9.600   1.6274   0.03071   0.02258  -0.1536  0.0553  1.0000  -3.2570   0.0000   0.0000   0.0000   0.3275
   9.700   1.6314   0.03125   0.02314  -0.1530  0.0540  1.0000  -3.2818   0.0000   0.0000   0.0000   0.3267
   9.800   1.6355   0.03179   0.02369  -0.1523  0.0527  1.0000  -3.3068   0.0000   0.0000   0.0000   0.3259
   9.900   1.6397   0.03233   0.02424  -0.1517  0.0517  1.0000  -3.3404   0.0000   0.0000   0.0000   0.3251
  10.000   1.6448   0.03278   0.02473  -0.1512  0.0513  1.0000  -3.3801   0.0000   0.0000   0.0000   0.3243
  10.100   1.6499   0.03325   0.02523  -0.1507  0.0509  1.0000  -3.4195   0.0000   0.0000   0.0000   0.3235
  10.200   1.6549   0.03373   0.02574  -0.1502  0.0502  1.0000  -3.4585   0.0000   0.0000   0.0000   0.3228
  10.300   1.6596   0.03423   0.02627  -0.1497  0.0494  1.0000  -3.4970   0.0000   0.0000   0.0000   0.3220
  10.400   1.6640   0.03477   0.02684  -0.1492  0.0485  1.0000  -3.5343   0.0000   0.0000   0.0000   0.3213
  10.500   1.6678   0.03536   0.02746  -0.1486  0.0473  1.0000  -3.5700   0.0000   0.0000   0.0000   0.3205
  10.600   1.6712   0.03600   0.02811  -0.1481  0.0460  1.0000  -3.6045   0.0000   0.0000   0.0000   0.3198
  10.700   1.6741   0.03669   0.02881  -0.1475  0.0444  1.0000  -3.6375   0.0000   0.0000   0.0000   0.3191
  10.800   1.6762   0.03745   0.02957  -0.1468  0.0427  1.0000  -3.6683   0.0000   0.0000   0.0000   0.3184
  10.900   1.6772   0.03832   0.03045  -0.1461  0.0409  1.0000  -3.6958   0.0000   0.0000   0.0000   0.3177
  11.000   1.6782   0.03921   0.03133  -0.1454  0.0391  1.0000  -3.7226   0.0000   0.0000   0.0000   0.3170
  11.100   1.6813   0.03989   0.03203  -0.1449  0.0378  1.0000  -3.7549   0.0000   0.0000   0.0000   0.3163
  11.200   1.6855   0.04048   0.03263  -0.1444  0.0367  1.0000  -3.7897   0.0000   0.0000   0.0000   0.3156
  11.300   1.6882   0.04122   0.03336  -0.1439  0.0332  1.0000  -3.8209   0.0000   0.0000   0.0000   0.3150
  11.400   1.6836   0.04266   0.03473  -0.1429  0.0251  1.0000  -3.8346   0.0000   0.0000   0.0000   0.3144
  11.500   1.6780   0.04421   0.03620  -0.1419  0.0198  1.0000  -3.8449   0.0000   0.0000   0.0000   0.3139
  11.600   1.6774   0.04529   0.03727  -0.1412  0.0163  1.0000  -3.8671   0.0000   0.0000   0.0000   0.3133
  11.700   1.6741   0.04668   0.03868  -0.1404  0.0095  1.0000  -3.8777   0.0000   0.0000   0.0000   0.3128
  11.800   1.6711   0.04807   0.04007  -0.1397  0.0084  1.0000  -3.8763   0.0000   0.0000   0.0000   0.3123
  11.900   1.6699   0.04931   0.04131  -0.1391  0.0072  1.0000  -3.8890   0.0000   0.0000   0.0000   0.3117
  12.000   1.6736   0.05001   0.04205  -0.1387  0.0058  1.0000  -3.9296   0.0000   0.0000   0.0000   0.3111
  12.100   1.6758   0.05089   0.04297  -0.1383  0.0051  1.0000  -3.9574   0.0000   0.0000   0.0000   0.3106
  12.300   1.6796   0.05276   0.04494  -0.1375  0.0045  1.0000  -4.0058   0.0000   0.0000   0.0000   0.3095
  12.400   1.6815   0.05371   0.04593  -0.1372  0.0044  1.0000  -4.0320   0.0000   0.0000   0.0000   0.3089
  12.500   1.6834   0.05466   0.04691  -0.1368  0.0043  1.0000  -4.0842   0.0000   0.0000   0.0000   0.3084
  12.600   1.6854   0.05561   0.04789  -0.1364  0.0042  1.0000  -4.1380   0.0000   0.0000   0.0000   0.3079
  12.700   1.6871   0.05660   0.04893  -0.1361  0.0042  1.0000  -4.1907   0.0000   0.0000   0.0000   0.3074
  12.800   1.6882   0.05768   0.05004  -0.1358  0.0041  1.0000  -4.2410   0.0000   0.0000   0.0000   0.3069
  12.900   1.6894   0.05875   0.05115  -0.1355  0.0041  1.0000  -4.2922   0.0000   0.0000   0.0000   0.3064
  13.000   1.6909   0.05979   0.05223  -0.1352  0.0040  1.0000  -4.3447   0.0000   0.0000   0.0000   0.3060
  13.100   1.6924   0.06082   0.05330  -0.1349  0.0040  1.0000  -4.3978   0.0000   0.0000   0.0000   0.3055
  13.200   1.6940   0.06186   0.05437  -0.1346  0.0040  1.0000  -4.4512   0.0000   0.0000   0.0000   0.3050
  13.300   1.6955   0.06291   0.05547  -0.1343  0.0039  1.0000  -4.5043   0.0000   0.0000   0.0000   0.3046
  13.400   1.6962   0.06407   0.05667  -0.1341  0.0039  1.0000  -4.5538   0.0000   0.0000   0.0000   0.3042
  13.500   1.6967   0.06528   0.05793  -0.1339  0.0039  1.0000  -4.6023   0.0000   0.0000   0.0000   0.3038
  13.600   1.6974   0.06646   0.05915  -0.1337  0.0039  1.0000  -4.6522   0.0000   0.0000   0.0000   0.3034
  13.700   1.6984   0.06762   0.06034  -0.1335  0.0038  1.0000  -4.7030   0.0000   0.0000   0.0000   0.3030
  13.800   1.6993   0.06876   0.06153  -0.1333  0.0038  1.0000  -4.7542   0.0000   0.0000   0.0000   0.3026
  13.900   1.7002   0.06993   0.06274  -0.1331  0.0038  1.0000  -4.8053   0.0000   0.0000   0.0000   0.3022
  14.000   1.7003   0.07123   0.06409  -0.1330  0.0038  1.0000  -4.8518   0.0000   0.0000   0.0000   0.3019
  14.100   1.7002   0.07255   0.06546  -0.1329  0.0038  1.0000  -4.8977   0.0000   0.0000   0.0000   0.3016
  14.200   1.7005   0.07383   0.06677  -0.1327  0.0038  1.0000  -4.9458   0.0000   0.0000   0.0000   0.3013
  14.300   1.7010   0.07507   0.06806  -0.1326  0.0038  1.0000  -4.9949   0.0000   0.0000   0.0000   0.3010
  14.400   1.7015   0.07631   0.06934  -0.1325  0.0038  1.0000  -5.0442   0.0000   0.0000   0.0000   0.3006
  14.500   1.7018   0.07756   0.07063  -0.1324  0.0038  1.0000  -5.0925   0.0000   0.0000   0.0000   0.3003
  14.600   1.7015   0.07889   0.07201  -0.1323  0.0038  1.0000  -5.1378   0.0000   0.0000   0.0000   0.3001
  14.700   1.7005   0.08036   0.07353  -0.1323  0.0038  1.0000  -5.1789   0.0000   0.0000   0.0000   0.2998
  14.800   1.6997   0.08178   0.07501  -0.1323  0.0038  1.0000  -5.2214   0.0000   0.0000   0.0000   0.2996
  14.900   1.6993   0.08317   0.07644  -0.1323  0.0038  1.0000  -5.2656   0.0000   0.0000   0.0000   0.2994
  15.000   1.6990   0.08454   0.07786  -0.1322  0.0038  1.0000  -5.3108   0.0000   0.0000   0.0000   0.2992
  15.100   1.6988   0.08592   0.07929  -0.1323  0.0038  1.0000  -5.3561   0.0000   0.0000   0.0000   0.2989
  15.200   1.6976   0.08747   0.08089  -0.1323  0.0038  1.0000  -5.3963   0.0000   0.0000   0.0000   0.2988
  15.300   1.6963   0.08907   0.08254  -0.1325  0.0038  1.0000  -5.4349   0.0000   0.0000   0.0000   0.2987
  15.400   1.6954   0.09058   0.08410  -0.1325  0.0038  1.0000  -5.4762   0.0000   0.0000   0.0000   0.2985
  15.500   1.6949   0.09205   0.08561  -0.1326  0.0038  1.0000  -5.5197   0.0000   0.0000   0.0000   0.2984
  15.600   1.6944   0.09351   0.08712  -0.1328  0.0038  1.0000  -5.5634   0.0000   0.0000   0.0000   0.2982
  15.700   1.6939   0.09497   0.08864  -0.1329  0.0038  1.0000  -5.6068   0.0000   0.0000   0.0000   0.2980
  15.800   1.6930   0.09653   0.09024  -0.1330  0.0038  1.0000  -5.6475   0.0000   0.0000   0.0000   0.2979
  15.900   1.6911   0.09826   0.09203  -0.1333  0.0038  1.0000  -5.6825   0.0000   0.0000   0.0000   0.2979
  16.000   1.6898   0.09990   0.09375  -0.1336  0.0038  1.0000  -5.7232   0.0000   0.0000   0.0000   0.2979
  16.100   1.6888   0.10149   0.09540  -0.1338  0.0038  1.0000  -5.7631   0.0000   0.0000   0.0000   0.2978
  16.200   1.6878   0.10306   0.09702  -0.1341  0.0038  1.0000  -5.8033   0.0000   0.0000   0.0000   0.2978
  16.300   1.6868   0.10464   0.09865  -0.1343  0.0038  1.0000  -5.8430   0.0000   0.0000   0.0000   0.2977
  16.400   1.6850   0.10639   0.10046  -0.1347  0.0038  1.0000  -5.8771   0.0000   0.0000   0.0000   0.2978
  16.500   1.6828   0.10821   0.10233  -0.1351  0.0038  1.0000  -5.9093   0.0000   0.0000   0.0000   0.2979
  16.600   1.6813   0.10991   0.10409  -0.1355  0.0038  1.0000  -5.9447   0.0000   0.0000   0.0000   0.2979
  16.700   1.6800   0.11156   0.10579  -0.1358  0.0038  1.0000  -5.9818   0.0000   0.0000   0.0000   0.2979
  16.800   1.6788   0.11319   0.10747  -0.1362  0.0038  1.0000  -6.0190   0.0000   0.0000   0.0000   0.2980
  16.900   1.6775   0.11483   0.10917  -0.1366  0.0038  1.0000  -6.0558   0.0000   0.0000   0.0000   0.2980
  17.000   1.6760   0.11655   0.11094  -0.1371  0.0039  1.0000  -6.0902   0.0000   0.0000   0.0000   0.2981
  17.100   1.6733   0.11850   0.11294  -0.1377  0.0039  1.0000  -6.1167   0.0000   0.0000   0.0000   0.2983
  17.200   1.6710   0.12035   0.11486  -0.1383  0.0039  1.0000  -6.1457   0.0000   0.0000   0.0000   0.2985
  17.300   1.6691   0.12213   0.11669  -0.1388  0.0039  1.0000  -6.1769   0.0000   0.0000   0.0000   0.2987
  17.400   1.6673   0.12388   0.11849  -0.1394  0.0039  1.0000  -6.2088   0.0000   0.0000   0.0000   0.2989
  17.500   1.6656   0.12565   0.12032  -0.1399  0.0039  1.0000  -6.2401   0.0000   0.0000   0.0000   0.2990
  17.600   1.6625   0.12769   0.12242  -0.1407  0.0039  1.0000  -6.2620   0.0000   0.0000   0.0000   0.2994
  17.700   1.6598   0.12964   0.12443  -0.1414  0.0039  1.0000  -6.2862   0.0000   0.0000   0.0000   0.2997
  17.800   1.6577   0.13148   0.12632  -0.1421  0.0039  1.0000  -6.3138   0.0000   0.0000   0.0000   0.3000
  17.900   1.6558   0.13328   0.12817  -0.1428  0.0039  1.0000  -6.3429   0.0000   0.0000   0.0000   0.3002
  18.000   1.6539   0.13508   0.13003  -0.1435  0.0039  1.0000  -6.3713   0.0000   0.0000   0.0000   0.3005
  18.100   1.6518   0.13693   0.13194  -0.1442  0.0040  1.0000  -6.3976   0.0000   0.0000   0.0000   0.3008
  18.200   1.6483   0.13907   0.13414  -0.1452  0.0040  1.0000  -6.4134   0.0000   0.0000   0.0000   0.3013
  18.300   1.6450   0.14118   0.13631  -0.1461  0.0040  1.0000  -6.4299   0.0000   0.0000   0.0000   0.3018
  18.400   1.6423   0.14316   0.13834  -0.1470  0.0040  1.0000  -6.4506   0.0000   0.0000   0.0000   0.3022
  18.500   1.6399   0.14510   0.14035  -0.1479  0.0040  1.0000  -6.4722   0.0000   0.0000   0.0000   0.3026
  18.600   1.6373   0.14703   0.14233  -0.1489  0.0040  1.0000  -6.4921   0.0000   0.0000   0.0000   0.3031
  18.700   1.6334   0.14918   0.14455  -0.1500  0.0040  1.0000  -6.5010   0.0000   0.0000   0.0000   0.3038
  18.800   1.6303   0.15116   0.14658  -0.1511  0.0040  1.0000  -6.5151   0.0000   0.0000   0.0000   0.3043
  18.900   1.6279   0.15302   0.14850  -0.1521  0.0040  1.0000  -6.5338   0.0000   0.0000   0.0000   0.3049
  19.000   1.6256   0.15484   0.15038  -0.1531  0.0041  1.0000  -6.5534   0.0000   0.0000   0.0000   0.3053
  19.100   1.6233   0.15670   0.15229  -0.1542  0.0041  1.0000  -6.5718   0.0000   0.0000   0.0000   0.3058
  19.200   1.6206   0.15866   0.15431  -0.1553  0.0041  1.0000  -6.5867   0.0000   0.0000   0.0000   0.3064
  19.300   1.6165   0.16097   0.15667  -0.1566  0.0041  1.0000  -6.5894   0.0000   0.0000   0.0000   0.3072
  19.400   1.6132   0.16316   0.15892  -0.1579  0.0041  1.0000  -6.5974   0.0000   0.0000   0.0000   0.3080
  19.500   1.6103   0.16527   0.16109  -0.1591  0.0041  1.0000  -6.6083   0.0000   0.0000   0.0000   0.3086
  19.600   1.6074   0.16739   0.16326  -0.1603  0.0041  1.0000  -6.6189   0.0000   0.0000   0.0000   0.3093
  19.700   1.6036   0.16974   0.16567  -0.1616  0.0041  1.0000  -6.6214   0.0000   0.0000   0.0000   0.3101
  19.800   1.5997   0.17219   0.16818  -0.1630  0.0041  1.0000  -6.6213   0.0000   0.0000   0.0000   0.3110
  19.900   1.5966   0.17446   0.17051  -0.1643  0.0042  1.0000  -6.6277   0.0000   0.0000   0.0000   0.3118
  20.000   1.5938   0.17667   0.17277  -0.1656  0.0042  1.0000  -6.6359   0.0000   0.0000   0.0000   0.3125


