xflr5 v6.59

 Calculated polar for: WORTMANN FX 63-137 AIRFOIL

 1 1 Reynolds number fixed          Mach number fixed         

 xtrf =   1.000 (top)        1.000 (bottom)
 Mach =   0.000     Re =     4.400 e 6     Ncrit =   9.000

  alpha     CL        CD       CDp       Cm    Top Xtr Bot Xtr   Cpmin    Chinge    XCp    
 ------- -------- --------- --------- -------- ------- ------- -------- --------- ---------
   0.000   0.9087   0.00945   0.00250  -0.2061  0.1226  0.0184  -1.1379   0.0000   0.0000   0.0000   0.4749
   0.100   0.9201   0.00947   0.00252  -0.2061  0.1223  0.0184  -1.1483   0.0000   0.0000   0.0000   0.4720
   0.200   0.9314   0.00950   0.00255  -0.2061  0.1218  0.0184  -1.1588   0.0000   0.0000   0.0000   0.4692
   0.300   0.9428   0.00953   0.00257  -0.2062  0.1213  0.0182  -1.1692   0.0000   0.0000   0.0000   0.4664
   0.400   0.9541   0.00956   0.00261  -0.2062  0.1205  0.0180  -1.1796   0.0000   0.0000   0.0000   0.4637
   0.500   0.9654   0.00959   0.00264  -0.2062  0.1198  0.0178  -1.1900   0.0000   0.0000   0.0000   0.4610
   0.600   0.9752   0.00975   0.00274  -0.2060  0.1045  0.0176  -1.1998   0.0000   0.0000   0.0000   0.4585
   0.700   0.9863   0.00980   0.00278  -0.2060  0.1024  0.0175  -1.2121   0.0000   0.0000   0.0000   0.4560
   0.900   1.0085   0.00989   0.00286  -0.2059  0.1006  0.0174  -1.2367   0.0000   0.0000   0.0000   0.4511
   1.000   1.0196   0.00993   0.00290  -0.2059  0.0996  0.0174  -1.2490   0.0000   0.0000   0.0000   0.4487
   1.100   1.0306   0.00998   0.00294  -0.2059  0.0986  0.0176  -1.2612   0.0000   0.0000   0.0000   0.4464
   1.200   1.0416   0.01003   0.00298  -0.2059  0.0975  0.0210  -1.2735   0.0000   0.0000   0.0000   0.4441
   1.300   1.0525   0.01009   0.00301  -0.2058  0.0964  0.0242  -1.2878   0.0000   0.0000   0.0000   0.4418
   1.400   1.0638   0.01012   0.00307  -0.2059  0.0953  0.0257  -1.3028   0.0000   0.0000   0.0000   0.4397
   1.500   1.0751   0.01015   0.00311  -0.2059  0.0941  0.0340  -1.3179   0.0000   0.0000   0.0000   0.4375
   1.600   1.0863   0.01019   0.00315  -0.2059  0.0928  0.0353  -1.3329   0.0000   0.0000   0.0000   0.4354
   1.700   1.0974   0.01023   0.00319  -0.2059  0.0914  0.0362  -1.3480   0.0000   0.0000   0.0000   0.4334
   1.800   1.1084   0.01027   0.00323  -0.2059  0.0900  0.0369  -1.3631   0.0000   0.0000   0.0000   0.4314
   1.900   1.1195   0.01031   0.00327  -0.2059  0.0887  0.0374  -1.3781   0.0000   0.0000   0.0000   0.4294
   2.000   1.1306   0.01035   0.00331  -0.2059  0.0875  0.0378  -1.3932   0.0000   0.0000   0.0000   0.4274
   2.100   1.1416   0.01039   0.00335  -0.2059  0.0864  0.0382  -1.4083   0.0000   0.0000   0.0000   0.4255
   2.200   1.1527   0.01043   0.00339  -0.2059  0.0854  0.0393  -1.4234   0.0000   0.0000   0.0000   0.4236
   2.300   1.1638   0.01047   0.00343  -0.2059  0.0845  0.0454  -1.4385   0.0000   0.0000   0.0000   0.4218
   2.400   1.1746   0.01052   0.00349  -0.2058  0.0834  0.0477  -1.4534   0.0000   0.0000   0.0000   0.4200
   2.500   1.1853   0.01059   0.00356  -0.2058  0.0808  0.0498  -1.4683   0.0000   0.0000   0.0000   0.4182
   2.600   1.1936   0.01086   0.00376  -0.2052  0.0632  0.0517  -1.4905   0.0000   0.0000   0.0000   0.4164
   2.700   1.2043   0.01094   0.00382  -0.2052  0.0594  0.0658  -1.5096   0.0000   0.0000   0.0000   0.4147
   2.800   1.2150   0.01100   0.00388  -0.2051  0.0564  0.0715  -1.5281   0.0000   0.0000   0.0000   0.4130
   2.900   1.2258   0.01106   0.00394  -0.2051  0.0537  0.0785  -1.5466   0.0000   0.0000   0.0000   0.4113
   3.000   1.2367   0.01111   0.00400  -0.2050  0.0519  0.0816  -1.5652   0.0000   0.0000   0.0000   0.4097
   3.100   1.2476   0.01116   0.00405  -0.2050  0.0515  0.0856  -1.5869   0.0000   0.0000   0.0000   0.4081
   3.200   1.2587   0.01120   0.00411  -0.2051  0.0511  0.1006  -1.6103   0.0000   0.0000   0.0000   0.4065
   3.300   1.2694   0.01126   0.00416  -0.2050  0.0507  0.1024  -1.6335   0.0000   0.0000   0.0000   0.4049
   3.400   1.2801   0.01131   0.00422  -0.2049  0.0502  0.1037  -1.6569   0.0000   0.0000   0.0000   0.4034
   3.500   1.2908   0.01137   0.00428  -0.2048  0.0496  0.1097  -1.6805   0.0000   0.0000   0.0000   0.4019
   3.600   1.3015   0.01144   0.00434  -0.2048  0.0488  0.1155  -1.7044   0.0000   0.0000   0.0000   0.4004
   3.700   1.3121   0.01150   0.00442  -0.2047  0.0477  0.1208  -1.7286   0.0000   0.0000   0.0000   0.3989
   3.800   1.3226   0.01157   0.00449  -0.2046  0.0466  0.1250  -1.7528   0.0000   0.0000   0.0000   0.3974
   3.900   1.3340   0.01157   0.00451  -0.2047  0.0499  0.1258  -1.7755   0.0000   0.0000   0.0000   0.3960
   4.000   1.3451   0.01161   0.00457  -0.2047  0.0496  0.1442  -1.8100   0.0000   0.0000   0.0000   0.3946
   4.100   1.3556   0.01168   0.00464  -0.2046  0.0490  0.1472  -1.8441   0.0000   0.0000   0.0000   0.3932
   4.200   1.3660   0.01176   0.00473  -0.2045  0.0476  0.1585  -1.8783   0.0000   0.0000   0.0000   0.3919
   4.300   1.3763   0.01185   0.00483  -0.2044  0.0453  0.1695  -1.9127   0.0000   0.0000   0.0000   0.3905
   4.400   1.3869   0.01193   0.00493  -0.2044  0.0427  0.1934  -1.9473   0.0000   0.0000   0.0000   0.3892
   4.500   1.3970   0.01202   0.00501  -0.2042  0.0400  0.1996  -1.9814   0.0000   0.0000   0.0000   0.3879
   4.600   1.4078   0.01208   0.00509  -0.2042  0.0382  0.2158  -2.0166   0.0000   0.0000   0.0000   0.3866
   4.700   1.4192   0.01211   0.00517  -0.2044  0.0380  0.2478  -2.0534   0.0000   0.0000   0.0000   0.3854
   4.800   1.4297   0.01218   0.00524  -0.2043  0.0378  0.2563  -2.0889   0.0000   0.0000   0.0000   0.3841
   4.900   1.4408   0.01222   0.00532  -0.2043  0.0376  0.2786  -2.1256   0.0000   0.0000   0.0000   0.3829
   5.000   1.4520   0.01226   0.00540  -0.2044  0.0373  0.3075  -2.1628   0.0000   0.0000   0.0000   0.3817
   5.100   1.4628   0.01232   0.00549  -0.2044  0.0371  0.3269  -2.1995   0.0000   0.0000   0.0000   0.3805
   5.200   1.4744   0.01235   0.00558  -0.2047  0.0367  0.3659  -2.2378   0.0000   0.0000   0.0000   0.3794
   5.300   1.4849   0.01242   0.00567  -0.2046  0.0362  0.3824  -2.2747   0.0000   0.0000   0.0000   0.3782
   5.400   1.4967   0.01244   0.00578  -0.2049  0.0354  0.4336  -2.3143   0.0000   0.0000   0.0000   0.3772
   5.500   1.5051   0.01269   0.00602  -0.2045  0.0261  0.4651  -2.3526   0.0000   0.0000   0.0000   0.3760
   5.600   1.5142   0.01286   0.00618  -0.2042  0.0227  0.4793  -2.3796   0.0000   0.0000   0.0000   0.3748
   5.700   1.5234   0.01300   0.00632  -0.2039  0.0194  0.4872  -2.4063   0.0000   0.0000   0.0000   0.3736
   5.800   1.5332   0.01311   0.00642  -0.2036  0.0171  0.4932  -2.4398   0.0000   0.0000   0.0000   0.3725
   6.000   1.5473   0.01369   0.00698  -0.2021  0.0039  0.4992  -2.5131   0.0000   0.0000   0.0000   0.3700
   6.100   1.5566   0.01381   0.00709  -0.2018  0.0036  0.5005  -2.5489   0.0000   0.0000   0.0000   0.3688
   6.200   1.5660   0.01392   0.00721  -0.2015  0.0034  0.5055  -2.5851   0.0000   0.0000   0.0000   0.3677
   6.300   1.5754   0.01403   0.00732  -0.2012  0.0032  0.5111  -2.6214   0.0000   0.0000   0.0000   0.3666
   6.400   1.5848   0.01413   0.00743  -0.2010  0.0031  0.5159  -2.6578   0.0000   0.0000   0.0000   0.3655
   6.500   1.5942   0.01424   0.00754  -0.2007  0.0029  0.5201  -2.6941   0.0000   0.0000   0.0000   0.3644
   6.600   1.6035   0.01435   0.00766  -0.2004  0.0028  0.5251  -2.7303   0.0000   0.0000   0.0000   0.3633
   6.700   1.6127   0.01446   0.00778  -0.2001  0.0026  0.5302  -2.7665   0.0000   0.0000   0.0000   0.3622
   6.800   1.6218   0.01457   0.00789  -0.1997  0.0024  0.5354  -2.8027   0.0000   0.0000   0.0000   0.3612
   6.900   1.6311   0.01468   0.00802  -0.1994  0.0022  0.5477  -2.8394   0.0000   0.0000   0.0000   0.3601
   7.000   1.6402   0.01479   0.00814  -0.1991  0.0021  0.5547  -2.8759   0.0000   0.0000   0.0000   0.3591
   7.100   1.6490   0.01491   0.00826  -0.1987  0.0020  0.5575  -2.9121   0.0000   0.0000   0.0000   0.3580
   7.200   1.6577   0.01503   0.00838  -0.1983  0.0018  0.5596  -2.9482   0.0000   0.0000   0.0000   0.3570
   7.300   1.6663   0.01516   0.00851  -0.1979  0.0017  0.5615  -2.9844   0.0000   0.0000   0.0000   0.3559
   7.400   1.6747   0.01528   0.00863  -0.1974  0.0016  0.5631  -3.0202   0.0000   0.0000   0.0000   0.3549
   7.500   1.6822   0.01541   0.00876  -0.1968  0.0015  0.5645  -3.0547   0.0000   0.0000   0.0000   0.3538
   7.600   1.6889   0.01554   0.00889  -0.1960  0.0014  0.5661  -3.0878   0.0000   0.0000   0.0000   0.3527
   7.700   1.6960   0.01567   0.00903  -0.1952  0.0014  0.5723  -3.1217   0.0000   0.0000   0.0000   0.3516
   7.800   1.7033   0.01580   0.00917  -0.1945  0.0013  0.5797  -3.1561   0.0000   0.0000   0.0000   0.3505
   7.900   1.7105   0.01593   0.00932  -0.1939  0.0013  0.5865  -3.1905   0.0000   0.0000   0.0000   0.3495
   8.000   1.7176   0.01607   0.00947  -0.1932  0.0013  0.5924  -3.2248   0.0000   0.0000   0.0000   0.3484
   8.100   1.7247   0.01622   0.00963  -0.1924  0.0013  0.5968  -3.2592   0.0000   0.0000   0.0000   0.3474
   8.300   1.7393   0.01652   0.00997  -0.1911  0.0013  0.6139  -3.3291   0.0000   0.0000   0.0000   0.3453
   8.400   1.7463   0.01667   0.01014  -0.1905  0.0013  0.6235  -3.3638   0.0000   0.0000   0.0000   0.3443
   8.500   1.7530   0.01684   0.01032  -0.1897  0.0013  0.6283  -3.3980   0.0000   0.0000   0.0000   0.3433
   8.600   1.7599   0.01700   0.01049  -0.1890  0.0013  0.6361  -3.4325   0.0000   0.0000   0.0000   0.3423
   8.700   1.7670   0.01717   0.01068  -0.1884  0.0013  0.6466  -3.4677   0.0000   0.0000   0.0000   0.3413
   8.800   1.7738   0.01735   0.01088  -0.1877  0.0013  0.6543  -3.5022   0.0000   0.0000   0.0000   0.3403
   8.900   1.7804   0.01753   0.01107  -0.1869  0.0013  0.6598  -3.5365   0.0000   0.0000   0.0000   0.3394
   9.000   1.7872   0.01772   0.01128  -0.1862  0.0013  0.6696  -3.5714   0.0000   0.0000   0.0000   0.3384
   9.100   1.7941   0.01791   0.01149  -0.1856  0.0013  0.6780  -3.6065   0.0000   0.0000   0.0000   0.3374
   9.200   1.8006   0.01811   0.01170  -0.1848  0.0013  0.6838  -3.6429   0.0000   0.0000   0.0000   0.3365
   9.300   1.8068   0.01832   0.01192  -0.1841  0.0013  0.6876  -3.6879   0.0000   0.0000   0.0000   0.3355
   9.400   1.8129   0.01854   0.01215  -0.1833  0.0013  0.6902  -3.7328   0.0000   0.0000   0.0000   0.3345
   9.500   1.8189   0.01876   0.01238  -0.1825  0.0012  0.6934  -3.7778   0.0000   0.0000   0.0000   0.3336
   9.600   1.8250   0.01899   0.01263  -0.1817  0.0012  0.6999  -3.8231   0.0000   0.0000   0.0000   0.3326
   9.700   1.8308   0.01923   0.01289  -0.1809  0.0012  0.7056  -3.8676   0.0000   0.0000   0.0000   0.3317
   9.800   1.8365   0.01948   0.01316  -0.1801  0.0012  0.7107  -3.9120   0.0000   0.0000   0.0000   0.3308
   9.900   1.8422   0.01974   0.01343  -0.1793  0.0012  0.7154  -3.9567   0.0000   0.0000   0.0000   0.3298
  10.000   1.8481   0.02000   0.01370  -0.1785  0.0012  0.7196  -4.0016   0.0000   0.0000   0.0000   0.3289
  10.100   1.8536   0.02028   0.01400  -0.1778  0.0012  0.7271  -4.0459   0.0000   0.0000   0.0000   0.3280
  10.200   1.8592   0.02057   0.01431  -0.1770  0.0012  0.7365  -4.0902   0.0000   0.0000   0.0000   0.3271
  10.300   1.8648   0.02086   0.01463  -0.1762  0.0012  0.7443  -4.1346   0.0000   0.0000   0.0000   0.3262
  10.400   1.8703   0.02115   0.01494  -0.1755  0.0012  0.7497  -4.1854   0.0000   0.0000   0.0000   0.3254
  10.500   1.8756   0.02148   0.01530  -0.1747  0.0012  0.7601  -4.2584   0.0000   0.0000   0.0000   0.3245
  10.600   1.8808   0.02181   0.01567  -0.1739  0.0012  0.7696  -4.3335   0.0000   0.0000   0.0000   0.3236
  10.700   1.8859   0.02215   0.01603  -0.1731  0.0012  0.7776  -4.4076   0.0000   0.0000   0.0000   0.3227
  10.800   1.8915   0.02249   0.01641  -0.1724  0.0012  0.7912  -4.4820   0.0000   0.0000   0.0000   0.3219
  10.900   1.8962   0.02286   0.01682  -0.1716  0.0012  0.8022  -4.5512   0.0000   0.0000   0.0000   0.3210
  11.000   1.9010   0.02325   0.01725  -0.1709  0.0012  0.8150  -4.6183   0.0000   0.0000   0.0000   0.3202
  11.100   1.9057   0.02365   0.01769  -0.1701  0.0012  0.8281  -4.6832   0.0000   0.0000   0.0000   0.3194
  11.200   1.9106   0.02406   0.01817  -0.1694  0.0012  0.8459  -4.7453   0.0000   0.0000   0.0000   0.3186
  11.300   1.9145   0.02454   0.01872  -0.1686  0.0012  0.8711  -4.7980   0.0000   0.0000   0.0000   0.3177


