xflr5 v6.59

 Calculated polar for: WORTMANN FX 63-137 AIRFOIL

 1 1 Reynolds number fixed          Mach number fixed         

 xtrf =   1.000 (top)        1.000 (bottom)
 Mach =   0.000     Re =     2.200 e 6     Ncrit =   9.000

  alpha     CL        CD       CDp       Cm    Top Xtr Bot Xtr   Cpmin    Chinge    XCp    
 ------- -------- --------- --------- -------- ------- ------- -------- --------- ---------
   0.000   0.8946   0.01023   0.00265  -0.2029  0.1806  0.0194  -1.1233   0.0000   0.0000   0.0000   0.4750
   0.100   0.9057   0.01028   0.00268  -0.2029  0.1770  0.0193  -1.1340   0.0000   0.0000   0.0000   0.4721
   0.200   0.9169   0.01032   0.00271  -0.2029  0.1735  0.0192  -1.1446   0.0000   0.0000   0.0000   0.4692
   0.300   0.9282   0.01035   0.00274  -0.2030  0.1707  0.0192  -1.1551   0.0000   0.0000   0.0000   0.4664
   0.400   0.9395   0.01038   0.00277  -0.2030  0.1699  0.0191  -1.1656   0.0000   0.0000   0.0000   0.4636
   0.500   0.9509   0.01040   0.00279  -0.2030  0.1693  0.0191  -1.1760   0.0000   0.0000   0.0000   0.4609
   0.600   0.9621   0.01043   0.00282  -0.2031  0.1687  0.0191  -1.1864   0.0000   0.0000   0.0000   0.4583
   0.700   0.9734   0.01046   0.00286  -0.2031  0.1678  0.0191  -1.1969   0.0000   0.0000   0.0000   0.4558
   0.800   0.9846   0.01050   0.00289  -0.2031  0.1667  0.0193  -1.2073   0.0000   0.0000   0.0000   0.4533
   0.900   0.9957   0.01054   0.00293  -0.2031  0.1650  0.0197  -1.2178   0.0000   0.0000   0.0000   0.4508
   1.000   1.0065   0.01059   0.00295  -0.2030  0.1643  0.0251  -1.2279   0.0000   0.0000   0.0000   0.4484
   1.100   1.0163   0.01076   0.00314  -0.2028  0.1464  0.0338  -1.2458   0.0000   0.0000   0.0000   0.4461
   1.200   1.0273   0.01082   0.00318  -0.2028  0.1441  0.0362  -1.2594   0.0000   0.0000   0.0000   0.4438
   1.300   1.0381   0.01088   0.00323  -0.2027  0.1418  0.0372  -1.2724   0.0000   0.0000   0.0000   0.4416
   1.400   1.0489   0.01095   0.00328  -0.2027  0.1395  0.0378  -1.2845   0.0000   0.0000   0.0000   0.4394
   1.500   1.0596   0.01102   0.00334  -0.2026  0.1372  0.0382  -1.2961   0.0000   0.0000   0.0000   0.4372
   1.600   1.0704   0.01108   0.00339  -0.2026  0.1348  0.0386  -1.3077   0.0000   0.0000   0.0000   0.4351
   1.700   1.0812   0.01114   0.00344  -0.2025  0.1321  0.0400  -1.3202   0.0000   0.0000   0.0000   0.4330
   1.800   1.0921   0.01119   0.00348  -0.2025  0.1293  0.0417  -1.3333   0.0000   0.0000   0.0000   0.4310
   1.900   1.1030   0.01124   0.00353  -0.2024  0.1266  0.0440  -1.3470   0.0000   0.0000   0.0000   0.4290
   2.000   1.1140   0.01129   0.00357  -0.2024  0.1244  0.0467  -1.3611   0.0000   0.0000   0.0000   0.4270
   2.100   1.1250   0.01133   0.00362  -0.2024  0.1238  0.0490  -1.3761   0.0000   0.0000   0.0000   0.4251
   2.200   1.1360   0.01137   0.00368  -0.2024  0.1234  0.0516  -1.3913   0.0000   0.0000   0.0000   0.4232
   2.300   1.1475   0.01139   0.00374  -0.2025  0.1229  0.0725  -1.4089   0.0000   0.0000   0.0000   0.4213
   2.400   1.1592   0.01140   0.00379  -0.2027  0.1222  0.0993  -1.4278   0.0000   0.0000   0.0000   0.4196
   2.500   1.1705   0.01143   0.00384  -0.2027  0.1214  0.1159  -1.4464   0.0000   0.0000   0.0000   0.4178
   2.600   1.1824   0.01144   0.00390  -0.2030  0.1202  0.1472  -1.4658   0.0000   0.0000   0.0000   0.4161
   2.700   1.1936   0.01147   0.00396  -0.2030  0.1183  0.1631  -1.4850   0.0000   0.0000   0.0000   0.4144
   2.800   1.2030   0.01168   0.00414  -0.2028  0.1021  0.1920  -1.5059   0.0000   0.0000   0.0000   0.4128
   2.900   1.2128   0.01181   0.00423  -0.2026  0.0983  0.1963  -1.5179   0.0000   0.0000   0.0000   0.4111
   3.000   1.2233   0.01191   0.00433  -0.2025  0.0936  0.2144  -1.5394   0.0000   0.0000   0.0000   0.4095
   3.100   1.2347   0.01196   0.00442  -0.2027  0.0879  0.2469  -1.5618   0.0000   0.0000   0.0000   0.4079
   3.200   1.2455   0.01202   0.00449  -0.2027  0.0843  0.2603  -1.5840   0.0000   0.0000   0.0000   0.4063
   3.300   1.2577   0.01202   0.00457  -0.2030  0.0837  0.3004  -1.6102   0.0000   0.0000   0.0000   0.4049
   3.400   1.2685   0.01208   0.00465  -0.2030  0.0827  0.3103  -1.6345   0.0000   0.0000   0.0000   0.4034
   3.500   1.2798   0.01212   0.00473  -0.2031  0.0812  0.3336  -1.6595   0.0000   0.0000   0.0000   0.4019
   3.600   1.2912   0.01216   0.00482  -0.2033  0.0787  0.3651  -1.6850   0.0000   0.0000   0.0000   0.4005
   3.700   1.2998   0.01239   0.00501  -0.2029  0.0663  0.3725  -1.7107   0.0000   0.0000   0.0000   0.3989
   3.800   1.3103   0.01247   0.00510  -0.2028  0.0643  0.3883  -1.7305   0.0000   0.0000   0.0000   0.3975
   3.900   1.3213   0.01249   0.00516  -0.2028  0.0664  0.3863  -1.7564   0.0000   0.0000   0.0000   0.3961
   4.000   1.3319   0.01256   0.00524  -0.2027  0.0654  0.4005  -1.7816   0.0000   0.0000   0.0000   0.3946
   4.100   1.3426   0.01264   0.00534  -0.2027  0.0638  0.4219  -1.8153   0.0000   0.0000   0.0000   0.3933
   4.200   1.3527   0.01274   0.00543  -0.2026  0.0622  0.4319  -1.8482   0.0000   0.0000   0.0000   0.3919
   4.300   1.3628   0.01283   0.00553  -0.2024  0.0605  0.4405  -1.8813   0.0000   0.0000   0.0000   0.3905
   4.400   1.3733   0.01291   0.00563  -0.2023  0.0586  0.4536  -1.9150   0.0000   0.0000   0.0000   0.3892
   4.500   1.3834   0.01300   0.00572  -0.2022  0.0565  0.4629  -1.9485   0.0000   0.0000   0.0000   0.3878
   4.600   1.3935   0.01309   0.00582  -0.2020  0.0547  0.4706  -1.9820   0.0000   0.0000   0.0000   0.3865
   4.700   1.4040   0.01317   0.00592  -0.2020  0.0532  0.4834  -2.0162   0.0000   0.0000   0.0000   0.3852
   4.800   1.4142   0.01325   0.00602  -0.2018  0.0520  0.4929  -2.0501   0.0000   0.0000   0.0000   0.3839
   4.900   1.4242   0.01333   0.00611  -0.2017  0.0516  0.4997  -2.0848   0.0000   0.0000   0.0000   0.3827
   5.000   1.4347   0.01340   0.00622  -0.2016  0.0512  0.5158  -2.1205   0.0000   0.0000   0.0000   0.3814
   5.100   1.4448   0.01349   0.00633  -0.2014  0.0507  0.5279  -2.1560   0.0000   0.0000   0.0000   0.3802
   5.200   1.4545   0.01359   0.00643  -0.2012  0.0499  0.5341  -2.1911   0.0000   0.0000   0.0000   0.3789
   5.300   1.4643   0.01369   0.00655  -0.2010  0.0488  0.5431  -2.2264   0.0000   0.0000   0.0000   0.3777
   5.400   1.4738   0.01381   0.00667  -0.2007  0.0473  0.5470  -2.2615   0.0000   0.0000   0.0000   0.3765
   5.500   1.4831   0.01393   0.00679  -0.2004  0.0457  0.5506  -2.2964   0.0000   0.0000   0.0000   0.3753
   5.600   1.4924   0.01406   0.00691  -0.2001  0.0443  0.5541  -2.3313   0.0000   0.0000   0.0000   0.3741
   5.700   1.5015   0.01419   0.00704  -0.1998  0.0428  0.5575  -2.3659   0.0000   0.0000   0.0000   0.3729
   5.800   1.5106   0.01432   0.00717  -0.1994  0.0412  0.5608  -2.4005   0.0000   0.0000   0.0000   0.3717
   5.900   1.5197   0.01444   0.00729  -0.1991  0.0396  0.5636  -2.4352   0.0000   0.0000   0.0000   0.3705
   6.000   1.5289   0.01456   0.00743  -0.1988  0.0378  0.5730  -2.4716   0.0000   0.0000   0.0000   0.3694
   6.100   1.5383   0.01467   0.00756  -0.1985  0.0370  0.5826  -2.5090   0.0000   0.0000   0.0000   0.3682
   6.200   1.5476   0.01479   0.00768  -0.1982  0.0362  0.5908  -2.5456   0.0000   0.0000   0.0000   0.3671
   6.300   1.5565   0.01491   0.00781  -0.1978  0.0353  0.5968  -2.5822   0.0000   0.0000   0.0000   0.3660
   6.400   1.5656   0.01503   0.00794  -0.1975  0.0343  0.6075  -2.6191   0.0000   0.0000   0.0000   0.3649
   6.500   1.5704   0.01542   0.00826  -0.1964  0.0250  0.6154  -2.6557   0.0000   0.0000   0.0000   0.3636
   6.600   1.5773   0.01564   0.00847  -0.1957  0.0219  0.6216  -2.6786   0.0000   0.0000   0.0000   0.3624
   6.700   1.5841   0.01583   0.00864  -0.1949  0.0189  0.6260  -2.7015   0.0000   0.0000   0.0000   0.3613
   6.800   1.5912   0.01597   0.00877  -0.1942  0.0170  0.6290  -2.7310   0.0000   0.0000   0.0000   0.3601
   6.900   1.5986   0.01610   0.00892  -0.1935  0.0164  0.6360  -2.7634   0.0000   0.0000   0.0000   0.3589
   7.100   1.6049   0.01683   0.00965  -0.1907  0.0046  0.6481  -2.8213   0.0000   0.0000   0.0000   0.3564
   7.200   1.6119   0.01700   0.00983  -0.1899  0.0044  0.6533  -2.8546   0.0000   0.0000   0.0000   0.3552
   7.300   1.6187   0.01718   0.01002  -0.1892  0.0042  0.6576  -2.8878   0.0000   0.0000   0.0000   0.3541
   8.100   1.6740   0.01861   0.01152  -0.1837  0.0023  0.6943  -3.1504   0.0000   0.0000   0.0000   0.3456
   8.200   1.6811   0.01879   0.01172  -0.1830  0.0021  0.7005  -3.1838   0.0000   0.0000   0.0000   0.3446
   8.300   1.6881   0.01898   0.01192  -0.1824  0.0017  0.7060  -3.2172   0.0000   0.0000   0.0000   0.3435
   9.000   1.7324   0.02059   0.01366  -0.1774  0.0013  0.7494  -3.4477   0.0000   0.0000   0.0000   0.3366
   9.100   1.7387   0.02084   0.01395  -0.1767  0.0013  0.7585  -3.4810   0.0000   0.0000   0.0000   0.3357
   9.200   1.7446   0.02111   0.01424  -0.1760  0.0013  0.7676  -3.5137   0.0000   0.0000   0.0000   0.3347
   9.300   1.7505   0.02139   0.01455  -0.1752  0.0013  0.7760  -3.5463   0.0000   0.0000   0.0000   0.3338
   9.400   1.7566   0.02167   0.01486  -0.1746  0.0013  0.7866  -3.5796   0.0000   0.0000   0.0000   0.3329
   9.500   1.7626   0.02196   0.01518  -0.1739  0.0013  0.7980  -3.6126   0.0000   0.0000   0.0000   0.3320
   9.600   1.7682   0.02227   0.01552  -0.1732  0.0013  0.8084  -3.6479   0.0000   0.0000   0.0000   0.3310
   9.700   1.7739   0.02258   0.01587  -0.1725  0.0013  0.8214  -3.6893   0.0000   0.0000   0.0000   0.3301
   9.800   1.7797   0.02290   0.01623  -0.1718  0.0013  0.8347  -3.7310   0.0000   0.0000   0.0000   0.3293
   9.900   1.7855   0.02322   0.01660  -0.1711  0.0013  0.8522  -3.7727   0.0000   0.0000   0.0000   0.3284
  10.000   1.7912   0.02355   0.01699  -0.1705  0.0013  0.8793  -3.8140   0.0000   0.0000   0.0000   0.3275
  11.100   1.8324   0.02836   0.02222  -0.1608  0.0017  1.0000  -4.1931   0.0000   0.0000   0.0000   0.3179
  11.200   1.8359   0.02890   0.02279  -0.1600  0.0017  1.0000  -4.2302   0.0000   0.0000   0.0000   0.3171
  11.300   1.8396   0.02944   0.02335  -0.1593  0.0018  1.0000  -4.2680   0.0000   0.0000   0.0000   0.3163
  11.400   1.8435   0.02998   0.02390  -0.1586  0.0018  1.0000  -4.3064   0.0000   0.0000   0.0000   0.3156
  11.500   1.8472   0.03054   0.02448  -0.1579  0.0019  1.0000  -4.3441   0.0000   0.0000   0.0000   0.3148
  11.600   1.8501   0.03116   0.02513  -0.1572  0.0020  1.0000  -4.3838   0.0000   0.0000   0.0000   0.3140
  11.700   1.8533   0.03178   0.02577  -0.1565  0.0021  1.0000  -4.4521   0.0000   0.0000   0.0000   0.3133
  11.800   1.8565   0.03240   0.02641  -0.1558  0.0022  1.0000  -4.5212   0.0000   0.0000   0.0000   0.3126
  11.900   1.8597   0.03303   0.02706  -0.1551  0.0023  1.0000  -4.5894   0.0000   0.0000   0.0000   0.3118
  12.000   1.8618   0.03376   0.02782  -0.1543  0.0024  1.0000  -4.6516   0.0000   0.0000   0.0000   0.3111
  12.100   1.8636   0.03453   0.02862  -0.1536  0.0026  1.0000  -4.7095   0.0000   0.0000   0.0000   0.3104
  12.200   1.8667   0.03520   0.02931  -0.1529  0.0030  1.0000  -4.7585   0.0000   0.0000   0.0000   0.3097
  12.300   1.8904   0.03402   0.02796  -0.1539  0.0043  1.0000  -4.8291   0.0000   0.0000   0.0000   0.3090


