xflr5 v6.59

 Calculated polar for: WORTMANN FX 63-137 AIRFOIL

 1 1 Reynolds number fixed          Mach number fixed         

 xtrf =   1.000 (top)        1.000 (bottom)
 Mach =   0.000     Re =     2.500 e 6     Ncrit =   9.000

  alpha     CL        CD       CDp       Cm    Top Xtr Bot Xtr   Cpmin    Chinge    XCp    
 ------- -------- --------- --------- -------- ------- ------- -------- --------- ---------
   0.000   0.8976   0.01006   0.00260  -0.2036  0.1690  0.0191  -1.1272   0.0000   0.0000   0.0000   0.4750
   0.100   0.9090   0.01008   0.00263  -0.2036  0.1683  0.0190  -1.1376   0.0000   0.0000   0.0000   0.4720
   0.200   0.9204   0.01011   0.00265  -0.2037  0.1675  0.0189  -1.1480   0.0000   0.0000   0.0000   0.4692
   0.300   0.9317   0.01013   0.00268  -0.2037  0.1665  0.0189  -1.1585   0.0000   0.0000   0.0000   0.4664
   0.400   0.9429   0.01017   0.00271  -0.2037  0.1649  0.0188  -1.1690   0.0000   0.0000   0.0000   0.4636
   0.500   0.9534   0.01027   0.00279  -0.2036  0.1557  0.0187  -1.1794   0.0000   0.0000   0.0000   0.4610
   0.600   0.9635   0.01040   0.00287  -0.2034  0.1453  0.0187  -1.1897   0.0000   0.0000   0.0000   0.4584
   0.700   0.9744   0.01046   0.00291  -0.2034  0.1431  0.0187  -1.2001   0.0000   0.0000   0.0000   0.4559
   0.800   0.9854   0.01051   0.00296  -0.2033  0.1409  0.0188  -1.2104   0.0000   0.0000   0.0000   0.4534
   0.900   0.9963   0.01058   0.00301  -0.2033  0.1387  0.0191  -1.2219   0.0000   0.0000   0.0000   0.4509
   1.000   1.0073   0.01063   0.00305  -0.2033  0.1372  0.0206  -1.2345   0.0000   0.0000   0.0000   0.4485
   1.100   1.0181   0.01068   0.00310  -0.2032  0.1351  0.0259  -1.2471   0.0000   0.0000   0.0000   0.4462
   1.200   1.0294   0.01072   0.00317  -0.2033  0.1326  0.0346  -1.2598   0.0000   0.0000   0.0000   0.4439
   1.300   1.0405   0.01076   0.00321  -0.2033  0.1301  0.0362  -1.2724   0.0000   0.0000   0.0000   0.4416
   1.400   1.0515   0.01081   0.00325  -0.2033  0.1275  0.0371  -1.2849   0.0000   0.0000   0.0000   0.4394
   1.500   1.0626   0.01085   0.00329  -0.2033  0.1253  0.0377  -1.2974   0.0000   0.0000   0.0000   0.4373
   1.600   1.0737   0.01089   0.00333  -0.2032  0.1240  0.0381  -1.3098   0.0000   0.0000   0.0000   0.4352
   1.700   1.0848   0.01093   0.00337  -0.2032  0.1237  0.0384  -1.3222   0.0000   0.0000   0.0000   0.4331
   1.800   1.0959   0.01096   0.00341  -0.2032  0.1233  0.0396  -1.3369   0.0000   0.0000   0.0000   0.4310
   1.900   1.1069   0.01100   0.00345  -0.2032  0.1228  0.0412  -1.3519   0.0000   0.0000   0.0000   0.4290
   2.000   1.1180   0.01104   0.00349  -0.2032  0.1222  0.0433  -1.3670   0.0000   0.0000   0.0000   0.4271
   2.100   1.1290   0.01108   0.00353  -0.2032  0.1215  0.0461  -1.3823   0.0000   0.0000   0.0000   0.4252
   2.200   1.1399   0.01113   0.00358  -0.2032  0.1205  0.0489  -1.3976   0.0000   0.0000   0.0000   0.4233
   2.300   1.1513   0.01116   0.00366  -0.2033  0.1189  0.0663  -1.4161   0.0000   0.0000   0.0000   0.4214
   2.400   1.1610   0.01131   0.00377  -0.2030  0.1084  0.0717  -1.4370   0.0000   0.0000   0.0000   0.4196
   2.500   1.1712   0.01142   0.00387  -0.2029  0.1023  0.0844  -1.4544   0.0000   0.0000   0.0000   0.4178
   2.600   1.1824   0.01147   0.00393  -0.2030  0.1007  0.1101  -1.4705   0.0000   0.0000   0.0000   0.4161
   2.700   1.1931   0.01156   0.00402  -0.2029  0.0972  0.1295  -1.4829   0.0000   0.0000   0.0000   0.4144
   2.800   1.2036   0.01165   0.00410  -0.2029  0.0922  0.1448  -1.4994   0.0000   0.0000   0.0000   0.4127
   2.900   1.2141   0.01173   0.00418  -0.2028  0.0867  0.1525  -1.5207   0.0000   0.0000   0.0000   0.4111
   3.000   1.2252   0.01177   0.00425  -0.2028  0.0842  0.1661  -1.5440   0.0000   0.0000   0.0000   0.4094
   3.100   1.2368   0.01180   0.00432  -0.2030  0.0834  0.1926  -1.5692   0.0000   0.0000   0.0000   0.4079
   3.200   1.2475   0.01186   0.00438  -0.2029  0.0824  0.2005  -1.5932   0.0000   0.0000   0.0000   0.4063
   3.300   1.2587   0.01190   0.00446  -0.2030  0.0807  0.2182  -1.6178   0.0000   0.0000   0.0000   0.4048
   3.400   1.2691   0.01202   0.00460  -0.2030  0.0705  0.2473  -1.6458   0.0000   0.0000   0.0000   0.4033
   3.500   1.2787   0.01217   0.00472  -0.2027  0.0651  0.2598  -1.6664   0.0000   0.0000   0.0000   0.4017
   3.600   1.2898   0.01223   0.00481  -0.2028  0.0631  0.2852  -1.6867   0.0000   0.0000   0.0000   0.4003
   3.700   1.3007   0.01230   0.00490  -0.2029  0.0611  0.3075  -1.7064   0.0000   0.0000   0.0000   0.3989
   3.800   1.3114   0.01237   0.00498  -0.2028  0.0592  0.3230  -1.7266   0.0000   0.0000   0.0000   0.3974
   3.900   1.3221   0.01241   0.00504  -0.2028  0.0616  0.3192  -1.7518   0.0000   0.0000   0.0000   0.3959
   4.000   1.3337   0.01244   0.00513  -0.2030  0.0607  0.3516  -1.7855   0.0000   0.0000   0.0000   0.3946
   4.100   1.3444   0.01250   0.00521  -0.2029  0.0591  0.3691  -1.8192   0.0000   0.0000   0.0000   0.3932
   4.200   1.3551   0.01257   0.00530  -0.2029  0.0573  0.3847  -1.8530   0.0000   0.0000   0.0000   0.3919
   4.300   1.3657   0.01264   0.00539  -0.2029  0.0554  0.3997  -1.8870   0.0000   0.0000   0.0000   0.3905
   4.400   1.3767   0.01269   0.00549  -0.2029  0.0538  0.4217  -1.9215   0.0000   0.0000   0.0000   0.3892
   4.500   1.3871   0.01277   0.00558  -0.2028  0.0525  0.4321  -1.9554   0.0000   0.0000   0.0000   0.3879
   4.600   1.3975   0.01284   0.00566  -0.2027  0.0517  0.4413  -1.9896   0.0000   0.0000   0.0000   0.3866
   4.700   1.4081   0.01290   0.00575  -0.2027  0.0515  0.4548  -2.0249   0.0000   0.0000   0.0000   0.3853
   4.800   1.4184   0.01298   0.00585  -0.2026  0.0511  0.4640  -2.0600   0.0000   0.0000   0.0000   0.3840
   4.900   1.4286   0.01306   0.00594  -0.2025  0.0506  0.4747  -2.0952   0.0000   0.0000   0.0000   0.3828
   5.000   1.4391   0.01313   0.00606  -0.2024  0.0496  0.4937  -2.1311   0.0000   0.0000   0.0000   0.3816
   5.100   1.4489   0.01324   0.00617  -0.2022  0.0482  0.5032  -2.1663   0.0000   0.0000   0.0000   0.3803
   5.200   1.4590   0.01334   0.00630  -0.2020  0.0464  0.5211  -2.2021   0.0000   0.0000   0.0000   0.3791
   5.300   1.4685   0.01346   0.00642  -0.2018  0.0446  0.5297  -2.2370   0.0000   0.0000   0.0000   0.3779
   5.400   1.4778   0.01359   0.00654  -0.2015  0.0431  0.5322  -2.2715   0.0000   0.0000   0.0000   0.3766
   5.500   1.4872   0.01371   0.00666  -0.2012  0.0415  0.5346  -2.3062   0.0000   0.0000   0.0000   0.3754
   5.600   1.4967   0.01382   0.00677  -0.2009  0.0399  0.5392  -2.3410   0.0000   0.0000   0.0000   0.3742
   5.700   1.5063   0.01392   0.00687  -0.2007  0.0385  0.5437  -2.3761   0.0000   0.0000   0.0000   0.3730
   5.800   1.5160   0.01402   0.00697  -0.2004  0.0381  0.5480  -2.4121   0.0000   0.0000   0.0000   0.3719
   5.900   1.5257   0.01411   0.00708  -0.2002  0.0378  0.5524  -2.4483   0.0000   0.0000   0.0000   0.3707
   6.000   1.5348   0.01424   0.00722  -0.1999  0.0365  0.5583  -2.4862   0.0000   0.0000   0.0000   0.3696
   6.100   1.5437   0.01437   0.00734  -0.1995  0.0350  0.5623  -2.5233   0.0000   0.0000   0.0000   0.3684
   6.200   1.5495   0.01471   0.00761  -0.1986  0.0264  0.5651  -2.5614   0.0000   0.0000   0.0000   0.3672
   6.300   1.5572   0.01493   0.00781  -0.1980  0.0226  0.5744  -2.5873   0.0000   0.0000   0.0000   0.3660
   6.400   1.5653   0.01511   0.00799  -0.1975  0.0191  0.5840  -2.6109   0.0000   0.0000   0.0000   0.3649
   6.500   1.5741   0.01524   0.00813  -0.1971  0.0170  0.5918  -2.6428   0.0000   0.0000   0.0000   0.3637
   6.600   1.5829   0.01537   0.00826  -0.1967  0.0164  0.5969  -2.6772   0.0000   0.0000   0.0000   0.3626
   6.800   1.5915   0.01603   0.00892  -0.1942  0.0045  0.6116  -2.7393   0.0000   0.0000   0.0000   0.3601
   6.900   1.5986   0.01618   0.00908  -0.1935  0.0043  0.6188  -2.7725   0.0000   0.0000   0.0000   0.3589
   7.000   1.6057   0.01634   0.00925  -0.1928  0.0042  0.6245  -2.8058   0.0000   0.0000   0.0000   0.3578
   7.100   1.6126   0.01649   0.00941  -0.1920  0.0040  0.6283  -2.8390   0.0000   0.0000   0.0000   0.3566
   7.200   1.6197   0.01665   0.00957  -0.1913  0.0038  0.6342  -2.8726   0.0000   0.0000   0.0000   0.3555
   7.300   1.6271   0.01680   0.00974  -0.1907  0.0036  0.6427  -2.9064   0.0000   0.0000   0.0000   0.3544
   7.400   1.6346   0.01695   0.00990  -0.1901  0.0035  0.6493  -2.9399   0.0000   0.0000   0.0000   0.3533
   7.500   1.6418   0.01710   0.01007  -0.1894  0.0033  0.6546  -2.9730   0.0000   0.0000   0.0000   0.3523
   7.600   1.6489   0.01726   0.01023  -0.1887  0.0031  0.6588  -3.0059   0.0000   0.0000   0.0000   0.3512
   7.800   1.6633   0.01759   0.01058  -0.1874  0.0026  0.6709  -3.0719   0.0000   0.0000   0.0000   0.3491
   7.900   1.6705   0.01775   0.01076  -0.1868  0.0023  0.6767  -3.1052   0.0000   0.0000   0.0000   0.3480
   8.000   1.6775   0.01792   0.01094  -0.1861  0.0021  0.6816  -3.1384   0.0000   0.0000   0.0000   0.3470
   8.100   1.6843   0.01810   0.01112  -0.1854  0.0018  0.6857  -3.1716   0.0000   0.0000   0.0000   0.3459
   8.200   1.6912   0.01828   0.01131  -0.1847  0.0015  0.6889  -3.2050   0.0000   0.0000   0.0000   0.3449
   8.300   1.6979   0.01847   0.01150  -0.1840  0.0014  0.6913  -3.2383   0.0000   0.0000   0.0000   0.3439
   8.600   1.7180   0.01908   0.01218  -0.1820  0.0014  0.7087  -3.3395   0.0000   0.0000   0.0000   0.3409
   8.700   1.7245   0.01930   0.01241  -0.1812  0.0014  0.7137  -3.3730   0.0000   0.0000   0.0000   0.3399
   8.800   1.7308   0.01952   0.01265  -0.1805  0.0013  0.7183  -3.4063   0.0000   0.0000   0.0000   0.3389
   9.100   1.7490   0.02025   0.01344  -0.1783  0.0013  0.7401  -3.5051   0.0000   0.0000   0.0000   0.3360
   9.200   1.7550   0.02051   0.01372  -0.1775  0.0013  0.7468  -3.5382   0.0000   0.0000   0.0000   0.3350
   9.300   1.7609   0.02078   0.01401  -0.1768  0.0013  0.7540  -3.5711   0.0000   0.0000   0.0000   0.3341
   9.400   1.7668   0.02106   0.01432  -0.1761  0.0013  0.7636  -3.6040   0.0000   0.0000   0.0000   0.3331
   9.500   1.7726   0.02134   0.01463  -0.1753  0.0013  0.7725  -3.6371   0.0000   0.0000   0.0000   0.3322
   9.600   1.7785   0.02163   0.01495  -0.1746  0.0013  0.7816  -3.6794   0.0000   0.0000   0.0000   0.3313
   9.700   1.7844   0.02193   0.01528  -0.1739  0.0013  0.7936  -3.7217   0.0000   0.0000   0.0000   0.3304
   9.800   1.7898   0.02224   0.01562  -0.1732  0.0013  0.8038  -3.7628   0.0000   0.0000   0.0000   0.3295
   9.900   1.7956   0.02256   0.01598  -0.1725  0.0013  0.8166  -3.8049   0.0000   0.0000   0.0000   0.3286
  10.000   1.8013   0.02288   0.01633  -0.1718  0.0013  0.8292  -3.8470   0.0000   0.0000   0.0000   0.3277
  10.100   1.8071   0.02320   0.01671  -0.1712  0.0013  0.8461  -3.8892   0.0000   0.0000   0.0000   0.3269
  10.200   1.8127   0.02355   0.01711  -0.1705  0.0013  0.8688  -3.9306   0.0000   0.0000   0.0000   0.3260


