xflr5 v6.59

 Calculated polar for: WORTMANN FX 63-137 AIRFOIL

 1 1 Reynolds number fixed          Mach number fixed         

 xtrf =   1.000 (top)        1.000 (bottom)
 Mach =   0.000     Re =     2.800 e 6     Ncrit =   9.000

  alpha     CL        CD       CDp       Cm    Top Xtr Bot Xtr   Cpmin    Chinge    XCp    
 ------- -------- --------- --------- -------- ------- ------- -------- --------- ---------
   0.100   0.9100   0.01006   0.00267  -0.2039  0.1459  0.0189  -1.1402   0.0000   0.0000   0.0000   0.4721
   0.200   0.9211   0.01011   0.00271  -0.2039  0.1439  0.0188  -1.1506   0.0000   0.0000   0.0000   0.4692
   0.300   0.9322   0.01016   0.00274  -0.2039  0.1418  0.0186  -1.1609   0.0000   0.0000   0.0000   0.4664
   0.400   0.9433   0.01021   0.00278  -0.2039  0.1398  0.0185  -1.1712   0.0000   0.0000   0.0000   0.4637
   0.500   0.9543   0.01027   0.00282  -0.2039  0.1377  0.0185  -1.1815   0.0000   0.0000   0.0000   0.4611
   0.600   0.9653   0.01032   0.00286  -0.2038  0.1356  0.0184  -1.1918   0.0000   0.0000   0.0000   0.4584
   0.700   0.9764   0.01036   0.00290  -0.2038  0.1335  0.0184  -1.2020   0.0000   0.0000   0.0000   0.4559
   0.800   0.9875   0.01040   0.00294  -0.2038  0.1310  0.0184  -1.2137   0.0000   0.0000   0.0000   0.4534
   0.900   0.9987   0.01044   0.00298  -0.2038  0.1290  0.0189  -1.2261   0.0000   0.0000   0.0000   0.4510
   1.000   1.0098   0.01048   0.00302  -0.2038  0.1269  0.0193  -1.2385   0.0000   0.0000   0.0000   0.4486
   1.100   1.0204   0.01054   0.00303  -0.2037  0.1250  0.0244  -1.2506   0.0000   0.0000   0.0000   0.4462
   1.200   1.0321   0.01055   0.00313  -0.2038  0.1240  0.0268  -1.2633   0.0000   0.0000   0.0000   0.4439
   1.300   1.0436   0.01057   0.00315  -0.2039  0.1237  0.0352  -1.2759   0.0000   0.0000   0.0000   0.4417
   1.400   1.0548   0.01061   0.00319  -0.2039  0.1233  0.0364  -1.2883   0.0000   0.0000   0.0000   0.4395
   1.500   1.0659   0.01064   0.00323  -0.2039  0.1229  0.0372  -1.3007   0.0000   0.0000   0.0000   0.4373
   1.600   1.0771   0.01068   0.00326  -0.2039  0.1224  0.0377  -1.3131   0.0000   0.0000   0.0000   0.4352
   1.700   1.0882   0.01072   0.00330  -0.2039  0.1218  0.0381  -1.3268   0.0000   0.0000   0.0000   0.4331
   1.800   1.0992   0.01076   0.00334  -0.2039  0.1211  0.0384  -1.3419   0.0000   0.0000   0.0000   0.4311
   1.900   1.1102   0.01080   0.00338  -0.2039  0.1199  0.0395  -1.3573   0.0000   0.0000   0.0000   0.4291
   2.000   1.1212   0.01085   0.00343  -0.2039  0.1187  0.0411  -1.3727   0.0000   0.0000   0.0000   0.4272
   2.100   1.1302   0.01106   0.00357  -0.2035  0.1031  0.0431  -1.3921   0.0000   0.0000   0.0000   0.4252
   2.200   1.1409   0.01112   0.00362  -0.2035  0.1018  0.0464  -1.4070   0.0000   0.0000   0.0000   0.4233
   2.300   1.1521   0.01117   0.00371  -0.2035  0.1005  0.0640  -1.4224   0.0000   0.0000   0.0000   0.4215
   2.400   1.1628   0.01123   0.00376  -0.2034  0.0991  0.0662  -1.4377   0.0000   0.0000   0.0000   0.4197
   2.500   1.1734   0.01130   0.00382  -0.2034  0.0977  0.0729  -1.4531   0.0000   0.0000   0.0000   0.4179
   2.600   1.1846   0.01136   0.00389  -0.2034  0.0937  0.0995  -1.4694   0.0000   0.0000   0.0000   0.4162
   2.700   1.1950   0.01145   0.00397  -0.2033  0.0876  0.1073  -1.4852   0.0000   0.0000   0.0000   0.4145
   2.800   1.2059   0.01150   0.00404  -0.2033  0.0843  0.1169  -1.5037   0.0000   0.0000   0.0000   0.4128
   2.900   1.2169   0.01155   0.00410  -0.2033  0.0836  0.1242  -1.5282   0.0000   0.0000   0.0000   0.4111
   3.000   1.2282   0.01158   0.00416  -0.2034  0.0824  0.1441  -1.5527   0.0000   0.0000   0.0000   0.4095
   3.100   1.2388   0.01165   0.00423  -0.2033  0.0808  0.1494  -1.5767   0.0000   0.0000   0.0000   0.4079
   3.200   1.2481   0.01183   0.00439  -0.2030  0.0683  0.1616  -1.6040   0.0000   0.0000   0.0000   0.4063
   3.300   1.2589   0.01192   0.00448  -0.2030  0.0645  0.1883  -1.6241   0.0000   0.0000   0.0000   0.4047
   3.400   1.2692   0.01201   0.00457  -0.2029  0.0625  0.1949  -1.6432   0.0000   0.0000   0.0000   0.4032
   3.500   1.2797   0.01209   0.00464  -0.2028  0.0605  0.2078  -1.6626   0.0000   0.0000   0.0000   0.4017
   3.600   1.2908   0.01214   0.00473  -0.2029  0.0584  0.2264  -1.6833   0.0000   0.0000   0.0000   0.4002
   3.700   1.3019   0.01219   0.00480  -0.2030  0.0563  0.2486  -1.7051   0.0000   0.0000   0.0000   0.3988
   3.800   1.3126   0.01225   0.00488  -0.2029  0.0544  0.2620  -1.7271   0.0000   0.0000   0.0000   0.3973
   3.900   1.3232   0.01230   0.00494  -0.2028  0.0574  0.2580  -1.7535   0.0000   0.0000   0.0000   0.3959
   4.000   1.3346   0.01233   0.00501  -0.2030  0.0564  0.2831  -1.7880   0.0000   0.0000   0.0000   0.3945
   4.100   1.3458   0.01237   0.00509  -0.2031  0.0548  0.3080  -1.8225   0.0000   0.0000   0.0000   0.3932
   4.200   1.3569   0.01242   0.00518  -0.2031  0.0534  0.3291  -1.8569   0.0000   0.0000   0.0000   0.3918
   4.300   1.3685   0.01245   0.00527  -0.2033  0.0522  0.3648  -1.8923   0.0000   0.0000   0.0000   0.3906
   4.400   1.3790   0.01251   0.00534  -0.2032  0.0516  0.3732  -1.9265   0.0000   0.0000   0.0000   0.3892
   4.500   1.3900   0.01256   0.00543  -0.2033  0.0515  0.3931  -1.9619   0.0000   0.0000   0.0000   0.3879
   4.600   1.4007   0.01262   0.00552  -0.2033  0.0512  0.4082  -1.9971   0.0000   0.0000   0.0000   0.3867
   4.700   1.4115   0.01268   0.00561  -0.2033  0.0506  0.4285  -2.0329   0.0000   0.0000   0.0000   0.3854
   4.800   1.4217   0.01277   0.00570  -0.2031  0.0497  0.4348  -2.0679   0.0000   0.0000   0.0000   0.3841
   4.900   1.4319   0.01285   0.00581  -0.2030  0.0483  0.4495  -2.1034   0.0000   0.0000   0.0000   0.3829
   5.000   1.4419   0.01296   0.00593  -0.2029  0.0462  0.4620  -2.1388   0.0000   0.0000   0.0000   0.3816
   5.100   1.4520   0.01307   0.00607  -0.2027  0.0441  0.4837  -2.1742   0.0000   0.0000   0.0000   0.3804
   5.200   1.4619   0.01318   0.00619  -0.2026  0.0424  0.4988  -2.2093   0.0000   0.0000   0.0000   0.3792
   5.300   1.4720   0.01327   0.00631  -0.2024  0.0407  0.5153  -2.2447   0.0000   0.0000   0.0000   0.3780
   5.400   1.4820   0.01336   0.00641  -0.2023  0.0392  0.5252  -2.2800   0.0000   0.0000   0.0000   0.3768
   5.500   1.4917   0.01346   0.00651  -0.2020  0.0382  0.5279  -2.3152   0.0000   0.0000   0.0000   0.3756
   5.600   1.5015   0.01355   0.00660  -0.2018  0.0380  0.5300  -2.3511   0.0000   0.0000   0.0000   0.3744
   5.700   1.5112   0.01364   0.00669  -0.2016  0.0377  0.5316  -2.3871   0.0000   0.0000   0.0000   0.3732
   5.800   1.5208   0.01374   0.00679  -0.2013  0.0374  0.5333  -2.4232   0.0000   0.0000   0.0000   0.3720
   5.900   1.5304   0.01384   0.00689  -0.2011  0.0371  0.5386  -2.4597   0.0000   0.0000   0.0000   0.3709
   6.100   1.5441   0.01441   0.00738  -0.1996  0.0226  0.5497  -2.5260   0.0000   0.0000   0.0000   0.3684
   6.200   1.5523   0.01460   0.00755  -0.1991  0.0183  0.5546  -2.5485   0.0000   0.0000   0.0000   0.3673
   6.300   1.5613   0.01472   0.00768  -0.1987  0.0167  0.5600  -2.5816   0.0000   0.0000   0.0000   0.3661
   6.400   1.5704   0.01484   0.00779  -0.1984  0.0163  0.5641  -2.6168   0.0000   0.0000   0.0000   0.3650
   6.500   1.5732   0.01536   0.00828  -0.1969  0.0053  0.5684  -2.6499   0.0000   0.0000   0.0000   0.3637
   6.600   1.5821   0.01548   0.00843  -0.1965  0.0044  0.5795  -2.6849   0.0000   0.0000   0.0000   0.3626
   6.700   1.5907   0.01562   0.00858  -0.1961  0.0042  0.5874  -2.7207   0.0000   0.0000   0.0000   0.3615
   6.800   1.5987   0.01575   0.00872  -0.1955  0.0040  0.5926  -2.7554   0.0000   0.0000   0.0000   0.3604
   6.900   1.6058   0.01589   0.00886  -0.1948  0.0039  0.5963  -2.7888   0.0000   0.0000   0.0000   0.3592
   7.000   1.6130   0.01603   0.00901  -0.1941  0.0037  0.6030  -2.8219   0.0000   0.0000   0.0000   0.3581
   7.100   1.6206   0.01616   0.00916  -0.1935  0.0035  0.6127  -2.8556   0.0000   0.0000   0.0000   0.3569
   7.200   1.6280   0.01630   0.00931  -0.1928  0.0034  0.6205  -2.8891   0.0000   0.0000   0.0000   0.3558
   7.300   1.6353   0.01644   0.00946  -0.1922  0.0032  0.6261  -2.9221   0.0000   0.0000   0.0000   0.3547
   7.400   1.6424   0.01658   0.00961  -0.1915  0.0030  0.6293  -2.9551   0.0000   0.0000   0.0000   0.3536
   7.500   1.6499   0.01673   0.00977  -0.1909  0.0028  0.6382  -2.9887   0.0000   0.0000   0.0000   0.3525
   7.600   1.6575   0.01687   0.00993  -0.1903  0.0025  0.6460  -3.0224   0.0000   0.0000   0.0000   0.3515
   7.700   1.6648   0.01702   0.01009  -0.1896  0.0023  0.6523  -3.0560   0.0000   0.0000   0.0000   0.3504
   7.800   1.6720   0.01718   0.01026  -0.1889  0.0021  0.6572  -3.0894   0.0000   0.0000   0.0000   0.3494
   8.700   1.7331   0.01884   0.01204  -0.1826  0.0013  0.7020  -3.3929   0.0000   0.0000   0.0000   0.3402
   8.800   1.7396   0.01906   0.01228  -0.1819  0.0013  0.7074  -3.4266   0.0000   0.0000   0.0000   0.3392
   8.900   1.7460   0.01928   0.01251  -0.1812  0.0013  0.7125  -3.4602   0.0000   0.0000   0.0000   0.3382
   9.000   1.7521   0.01951   0.01276  -0.1804  0.0013  0.7171  -3.4934   0.0000   0.0000   0.0000   0.3372
   9.200   1.7639   0.02001   0.01329  -0.1789  0.0013  0.7301  -3.5593   0.0000   0.0000   0.0000   0.3353
   9.300   1.7700   0.02026   0.01357  -0.1782  0.0013  0.7384  -3.5928   0.0000   0.0000   0.0000   0.3343
   9.400   1.7760   0.02052   0.01385  -0.1774  0.0013  0.7455  -3.6260   0.0000   0.0000   0.0000   0.3334
   9.500   1.7817   0.02079   0.01414  -0.1767  0.0013  0.7517  -3.6650   0.0000   0.0000   0.0000   0.3324
   9.600   1.7876   0.02107   0.01445  -0.1759  0.0013  0.7617  -3.7079   0.0000   0.0000   0.0000   0.3315
   9.700   1.7935   0.02136   0.01476  -0.1752  0.0013  0.7708  -3.7508   0.0000   0.0000   0.0000   0.3306
  10.200   1.8220   0.02291   0.01649  -0.1717  0.0013  0.8276  -3.9626   0.0000   0.0000   0.0000   0.3262
  10.300   1.8275   0.02326   0.01688  -0.1711  0.0013  0.8440  -4.0043   0.0000   0.0000   0.0000   0.3253
  10.400   1.8330   0.02362   0.01730  -0.1704  0.0013  0.8659  -4.0456   0.0000   0.0000   0.0000   0.3245


