xflr5 v6.59

 Calculated polar for: WORTMANN FX 63-137 AIRFOIL

 1 1 Reynolds number fixed          Mach number fixed         

 xtrf =   1.000 (top)        1.000 (bottom)
 Mach =   0.000     Re =     1.700 e 6     Ncrit =   9.000

  alpha     CL        CD       CDp       Cm    Top Xtr Bot Xtr   Cpmin    Chinge    XCp    
 ------- -------- --------- --------- -------- ------- ------- -------- --------- ---------
   0.000   0.8926   0.01024   0.00255  -0.2023  0.2354  0.0200  -1.1186   0.0000   0.0000   0.0000   0.4748
   0.100   0.9032   0.01034   0.00260  -0.2022  0.2263  0.0200  -1.1219   0.0000   0.0000   0.0000   0.4719
   0.200   0.9143   0.01038   0.00263  -0.2022  0.2218  0.0199  -1.1307   0.0000   0.0000   0.0000   0.4690
   0.300   0.9257   0.01040   0.00266  -0.2022  0.2208  0.0199  -1.1428   0.0000   0.0000   0.0000   0.4662
   0.400   0.9370   0.01043   0.00269  -0.2023  0.2195  0.0200  -1.1553   0.0000   0.0000   0.0000   0.4634
   0.500   0.9483   0.01046   0.00272  -0.2023  0.2178  0.0200  -1.1680   0.0000   0.0000   0.0000   0.4607
   0.600   0.9595   0.01050   0.00275  -0.2023  0.2155  0.0201  -1.1808   0.0000   0.0000   0.0000   0.4581
   0.700   0.9689   0.01068   0.00287  -0.2020  0.1988  0.0202  -1.1971   0.0000   0.0000   0.0000   0.4556
   0.800   0.9794   0.01077   0.00293  -0.2019  0.1927  0.0206  -1.2091   0.0000   0.0000   0.0000   0.4531
   0.900   0.9901   0.01085   0.00297  -0.2018  0.1893  0.0215  -1.2194   0.0000   0.0000   0.0000   0.4507
   1.000   1.0013   0.01089   0.00308  -0.2019  0.1868  0.0359  -1.2293   0.0000   0.0000   0.0000   0.4483
   1.100   1.0120   0.01096   0.00313  -0.2018  0.1836  0.0373  -1.2375   0.0000   0.0000   0.0000   0.4460
   1.200   1.0228   0.01103   0.00318  -0.2017  0.1802  0.0380  -1.2467   0.0000   0.0000   0.0000   0.4437
   1.300   1.0336   0.01109   0.00323  -0.2017  0.1762  0.0384  -1.2610   0.0000   0.0000   0.0000   0.4414
   1.400   1.0445   0.01114   0.00328  -0.2017  0.1723  0.0400  -1.2753   0.0000   0.0000   0.0000   0.4392
   1.500   1.0556   0.01119   0.00332  -0.2016  0.1702  0.0418  -1.2899   0.0000   0.0000   0.0000   0.4370
   1.600   1.0667   0.01122   0.00336  -0.2016  0.1695  0.0442  -1.3049   0.0000   0.0000   0.0000   0.4349
   1.700   1.0777   0.01126   0.00339  -0.2016  0.1686  0.0469  -1.3199   0.0000   0.0000   0.0000   0.4328
   1.800   1.0888   0.01130   0.00344  -0.2016  0.1676  0.0490  -1.3350   0.0000   0.0000   0.0000   0.4308
   1.900   1.0998   0.01134   0.00350  -0.2016  0.1661  0.0512  -1.3504   0.0000   0.0000   0.0000   0.4288
   2.000   1.1110   0.01138   0.00355  -0.2017  0.1637  0.0631  -1.3662   0.0000   0.0000   0.0000   0.4268
   2.100   1.1201   0.01158   0.00370  -0.2013  0.1485  0.0657  -1.3854   0.0000   0.0000   0.0000   0.4249
   2.200   1.1303   0.01168   0.00377  -0.2012  0.1441  0.0681  -1.3993   0.0000   0.0000   0.0000   0.4230
   2.300   1.1410   0.01176   0.00384  -0.2011  0.1414  0.0789  -1.4122   0.0000   0.0000   0.0000   0.4211
   2.400   1.1553   0.01167   0.00394  -0.2020  0.1384  0.1928  -1.4261   0.0000   0.0000   0.0000   0.4196
   2.500   1.1678   0.01167   0.00402  -0.2025  0.1354  0.2463  -1.4387   0.0000   0.0000   0.0000   0.4180
   2.600   1.1787   0.01173   0.00409  -0.2025  0.1322  0.2623  -1.4565   0.0000   0.0000   0.0000   0.4163
   2.700   1.1909   0.01173   0.00417  -0.2029  0.1287  0.3035  -1.4753   0.0000   0.0000   0.0000   0.4147
   2.800   1.2020   0.01178   0.00424  -0.2029  0.1256  0.3181  -1.4932   0.0000   0.0000   0.0000   0.4130
   2.900   1.2144   0.01177   0.00431  -0.2033  0.1239  0.3597  -1.5143   0.0000   0.0000   0.0000   0.4114
   3.000   1.2253   0.01181   0.00437  -0.2033  0.1234  0.3700  -1.5364   0.0000   0.0000   0.0000   0.4098
   3.100   1.2367   0.01185   0.00445  -0.2034  0.1224  0.3882  -1.5589   0.0000   0.0000   0.0000   0.4082
   3.200   1.2475   0.01191   0.00452  -0.2034  0.1202  0.4018  -1.5811   0.0000   0.0000   0.0000   0.4066
   3.300   1.2562   0.01215   0.00474  -0.2030  0.1031  0.4197  -1.6013   0.0000   0.0000   0.0000   0.4051
   3.400   1.2658   0.01230   0.00485  -0.2028  0.0988  0.4309  -1.6225   0.0000   0.0000   0.0000   0.4035
   3.500   1.2754   0.01245   0.00496  -0.2025  0.0941  0.4378  -1.6437   0.0000   0.0000   0.0000   0.4020
   3.600   1.2856   0.01256   0.00508  -0.2024  0.0883  0.4497  -1.6652   0.0000   0.0000   0.0000   0.4005
   3.700   1.2960   0.01264   0.00517  -0.2023  0.0843  0.4590  -1.6871   0.0000   0.0000   0.0000   0.3990
   3.800   1.3064   0.01271   0.00526  -0.2022  0.0837  0.4653  -1.7121   0.0000   0.0000   0.0000   0.3975
   3.900   1.3169   0.01277   0.00533  -0.2021  0.0842  0.4652  -1.7383   0.0000   0.0000   0.0000   0.3960
   4.000   1.3276   0.01283   0.00541  -0.2020  0.0842  0.4745  -1.7717   0.0000   0.0000   0.0000   0.3946
   4.100   1.3382   0.01289   0.00550  -0.2020  0.0837  0.4851  -1.8053   0.0000   0.0000   0.0000   0.3932
   4.200   1.3485   0.01297   0.00559  -0.2018  0.0828  0.4925  -1.8386   0.0000   0.0000   0.0000   0.3918
   4.300   1.3586   0.01305   0.00568  -0.2017  0.0814  0.4971  -1.8718   0.0000   0.0000   0.0000   0.3904
   4.400   1.3684   0.01316   0.00578  -0.2014  0.0789  0.5000  -1.9047   0.0000   0.0000   0.0000   0.3890
   4.500   1.3764   0.01341   0.00598  -0.2009  0.0666  0.5064  -1.9348   0.0000   0.0000   0.0000   0.3877
   4.600   1.3861   0.01353   0.00610  -0.2007  0.0647  0.5161  -1.9677   0.0000   0.0000   0.0000   0.3863
   4.700   1.3957   0.01365   0.00622  -0.2005  0.0630  0.5258  -2.0006   0.0000   0.0000   0.0000   0.3850
   4.800   1.4052   0.01377   0.00633  -0.2002  0.0612  0.5324  -2.0334   0.0000   0.0000   0.0000   0.3837
   4.900   1.4151   0.01388   0.00644  -0.2000  0.0592  0.5447  -2.0669   0.0000   0.0000   0.0000   0.3824
   5.000   1.4249   0.01398   0.00656  -0.1998  0.0571  0.5546  -2.1003   0.0000   0.0000   0.0000   0.3811
   5.100   1.4345   0.01409   0.00667  -0.1995  0.0552  0.5609  -2.1335   0.0000   0.0000   0.0000   0.3799
   5.200   1.4439   0.01420   0.00678  -0.1992  0.0534  0.5639  -2.1667   0.0000   0.0000   0.0000   0.3786
   5.300   1.4534   0.01431   0.00689  -0.1990  0.0518  0.5668  -2.1999   0.0000   0.0000   0.0000   0.3773
   5.400   1.4632   0.01440   0.00700  -0.1987  0.0515  0.5735  -2.2354   0.0000   0.0000   0.0000   0.3761
   5.500   1.4729   0.01450   0.00712  -0.1985  0.0512  0.5798  -2.2709   0.0000   0.0000   0.0000   0.3749
   5.600   1.4824   0.01460   0.00724  -0.1983  0.0507  0.5859  -2.3062   0.0000   0.0000   0.0000   0.3737
   5.700   1.4917   0.01472   0.00737  -0.1980  0.0499  0.5919  -2.3413   0.0000   0.0000   0.0000   0.3725
   5.800   1.5008   0.01484   0.00750  -0.1976  0.0490  0.5969  -2.3762   0.0000   0.0000   0.0000   0.3713
   5.900   1.5100   0.01496   0.00764  -0.1973  0.0480  0.6066  -2.4115   0.0000   0.0000   0.0000   0.3702
   6.000   1.5191   0.01509   0.00778  -0.1970  0.0468  0.6166  -2.4466   0.0000   0.0000   0.0000   0.3690
   6.100   1.5261   0.01533   0.00803  -0.1963  0.0420  0.6257  -2.4803   0.0000   0.0000   0.0000   0.3678
   6.200   1.5343   0.01549   0.00818  -0.1958  0.0395  0.6292  -2.5140   0.0000   0.0000   0.0000   0.3666
   6.300   1.5432   0.01562   0.00831  -0.1954  0.0382  0.6364  -2.5490   0.0000   0.0000   0.0000   0.3655
   6.400   1.5520   0.01573   0.00844  -0.1950  0.0379  0.6425  -2.5846   0.0000   0.0000   0.0000   0.3644
   6.500   1.5603   0.01585   0.00857  -0.1945  0.0375  0.6475  -2.6195   0.0000   0.0000   0.0000   0.3632
   6.600   1.5680   0.01597   0.00871  -0.1939  0.0371  0.6521  -2.6536   0.0000   0.0000   0.0000   0.3620
   6.700   1.5756   0.01610   0.00884  -0.1933  0.0367  0.6563  -2.6876   0.0000   0.0000   0.0000   0.3609
   6.800   1.5831   0.01623   0.00898  -0.1926  0.0361  0.6597  -2.7218   0.0000   0.0000   0.0000   0.3597
   7.000   1.5978   0.01654   0.00929  -0.1913  0.0341  0.6706  -2.7913   0.0000   0.0000   0.0000   0.3575
   7.100   1.6007   0.01693   0.00962  -0.1899  0.0269  0.6753  -2.8264   0.0000   0.0000   0.0000   0.3562
   7.200   1.6061   0.01718   0.00986  -0.1889  0.0238  0.6798  -2.8547   0.0000   0.0000   0.0000   0.3550
   7.300   1.6111   0.01746   0.01013  -0.1879  0.0210  0.6839  -2.8732   0.0000   0.0000   0.0000   0.3538
   7.400   1.6171   0.01769   0.01034  -0.1870  0.0179  0.6875  -2.8951   0.0000   0.0000   0.0000   0.3527
   7.500   1.6240   0.01787   0.01052  -0.1863  0.0166  0.6905  -2.9260   0.0000   0.0000   0.0000   0.3516
   7.600   1.6310   0.01805   0.01071  -0.1856  0.0161  0.6952  -2.9585   0.0000   0.0000   0.0000   0.3505
   7.800   1.6348   0.01899   0.01165  -0.1826  0.0044  0.7056  -3.0133   0.0000   0.0000   0.0000   0.3481
   7.900   1.6411   0.01922   0.01189  -0.1818  0.0042  0.7108  -3.0463   0.0000   0.0000   0.0000   0.3470
   8.000   1.6472   0.01946   0.01214  -0.1810  0.0040  0.7156  -3.0793   0.0000   0.0000   0.0000   0.3459
   8.100   1.6534   0.01969   0.01239  -0.1803  0.0038  0.7201  -3.1121   0.0000   0.0000   0.0000   0.3449
   8.300   1.6670   0.02012   0.01285  -0.1790  0.0032  0.7347  -3.1766   0.0000   0.0000   0.0000   0.3429
   8.400   1.6734   0.02035   0.01309  -0.1783  0.0028  0.7421  -3.2077   0.0000   0.0000   0.0000   0.3419
   8.500   1.6798   0.02057   0.01332  -0.1776  0.0024  0.7485  -3.2388   0.0000   0.0000   0.0000   0.3409
   8.600   1.6860   0.02082   0.01363  -0.1769  0.0029  0.7566  -3.2729   0.0000   0.0000   0.0000   0.3399
   8.700   1.6926   0.02106   0.01389  -0.1763  0.0027  0.7656  -3.3051   0.0000   0.0000   0.0000   0.3389
   8.800   1.6990   0.02130   0.01414  -0.1756  0.0023  0.7742  -3.3369   0.0000   0.0000   0.0000   0.3380
   8.900   1.7053   0.02156   0.01443  -0.1749  0.0017  0.7835  -3.3686   0.0000   0.0000   0.0000   0.3370
   9.000   1.7112   0.02184   0.01475  -0.1742  0.0015  0.7946  -3.4004   0.0000   0.0000   0.0000   0.3361
   9.100   1.7172   0.02213   0.01506  -0.1735  0.0014  0.8044  -3.4326   0.0000   0.0000   0.0000   0.3351
  10.400   1.7798   0.02660   0.02005  -0.1631  0.0014  1.0000  -3.8723   0.0000   0.0000   0.0000   0.3232
  10.500   1.7838   0.02708   0.02055  -0.1624  0.0014  1.0000  -3.9087   0.0000   0.0000   0.0000   0.3224
  10.600   1.7880   0.02755   0.02105  -0.1616  0.0014  1.0000  -3.9456   0.0000   0.0000   0.0000   0.3216
  10.700   1.7923   0.02802   0.02154  -0.1609  0.0014  1.0000  -3.9829   0.0000   0.0000   0.0000   0.3207
  10.800   1.7963   0.02853   0.02208  -0.1602  0.0015  1.0000  -4.0193   0.0000   0.0000   0.0000   0.3199
  10.900   1.7998   0.02908   0.02265  -0.1594  0.0015  1.0000  -4.0545   0.0000   0.0000   0.0000   0.3191
  11.000   1.8034   0.02963   0.02323  -0.1587  0.0015  1.0000  -4.0901   0.0000   0.0000   0.0000   0.3183
  11.100   1.8072   0.03019   0.02382  -0.1580  0.0016  1.0000  -4.1256   0.0000   0.0000   0.0000   0.3176
  11.200   1.8106   0.03077   0.02442  -0.1573  0.0016  1.0000  -4.1610   0.0000   0.0000   0.0000   0.3168
  11.300   1.8136   0.03139   0.02507  -0.1565  0.0016  1.0000  -4.1953   0.0000   0.0000   0.0000   0.3160
  11.400   1.8168   0.03201   0.02571  -0.1558  0.0017  1.0000  -4.2303   0.0000   0.0000   0.0000   0.3153
  11.500   1.8202   0.03262   0.02635  -0.1552  0.0017  1.0000  -4.2659   0.0000   0.0000   0.0000   0.3145
  11.600   1.8236   0.03324   0.02699  -0.1545  0.0017  1.0000  -4.3016   0.0000   0.0000   0.0000   0.3138
  11.700   1.8262   0.03393   0.02770  -0.1538  0.0018  1.0000  -4.3357   0.0000   0.0000   0.0000   0.3131
  11.800   1.8289   0.03462   0.02842  -0.1531  0.0018  1.0000  -4.3885   0.0000   0.0000   0.0000   0.3124
  11.900   1.8317   0.03530   0.02913  -0.1525  0.0019  1.0000  -4.4543   0.0000   0.0000   0.0000   0.3117
  12.000   1.8347   0.03598   0.02982  -0.1518  0.0019  1.0000  -4.5210   0.0000   0.0000   0.0000   0.3110
  12.100   1.8371   0.03671   0.03059  -0.1512  0.0019  1.0000  -4.5851   0.0000   0.0000   0.0000   0.3103
  12.200   1.8390   0.03751   0.03141  -0.1505  0.0020  1.0000  -4.6467   0.0000   0.0000   0.0000   0.3096
  12.300   1.8412   0.03828   0.03221  -0.1499  0.0021  1.0000  -4.7102   0.0000   0.0000   0.0000   0.3090
  12.400   1.8436   0.03904   0.03299  -0.1493  0.0021  1.0000  -4.7749   0.0000   0.0000   0.0000   0.3083
  12.500   1.8460   0.03981   0.03379  -0.1487  0.0022  1.0000  -4.8394   0.0000   0.0000   0.0000   0.3077
  12.600   1.8476   0.04065   0.03466  -0.1481  0.0023  1.0000  -4.9001   0.0000   0.0000   0.0000   0.3070
  12.700   1.8484   0.04159   0.03564  -0.1474  0.0023  1.0000  -4.9556   0.0000   0.0000   0.0000   0.3064
  12.800   1.8494   0.04250   0.03657  -0.1468  0.0024  1.0000  -5.0115   0.0000   0.0000   0.0000   0.3058
  12.900   1.8506   0.04339   0.03749  -0.1462  0.0026  1.0000  -5.0668   0.0000   0.0000   0.0000   0.3052
  13.000   1.8521   0.04426   0.03840  -0.1456  0.0027  1.0000  -5.1188   0.0000   0.0000   0.0000   0.3046
  13.100   1.8547   0.04505   0.03920  -0.1451  0.0030  1.0000  -5.1592   0.0000   0.0000   0.0000   0.3040
  13.200   1.8645   0.04512   0.03922  -0.1450  0.0036  1.0000  -5.2103   0.0000   0.0000   0.0000   0.3033
  13.300   1.8748   0.04514   0.03920  -0.1449  0.0041  1.0000  -5.2811   0.0000   0.0000   0.0000   0.3026
  13.400   1.8856   0.04510   0.03916  -0.1448  0.0044  1.0000  -5.3594   0.0000   0.0000   0.0000   0.3019
  14.200   1.9032   0.05215   0.04652  -0.1413  0.0065  1.0000  -5.8313   0.0000   0.0000   0.0000   0.2974
  14.300   1.9043   0.05319   0.04760  -0.1409  0.0068  1.0000  -5.8883   0.0000   0.0000   0.0000   0.2969
  14.400   1.9056   0.05422   0.04870  -0.1404  0.0074  1.0000  -5.9441   0.0000   0.0000   0.0000   0.2963
  14.500   1.9237   0.05338   0.04789  -0.1406  0.0093  1.0000  -6.0522   0.0000   0.0000   0.0000   0.2954
  14.600   1.9237   0.05454   0.04910  -0.1401  0.0092  1.0000  -6.1027   0.0000   0.0000   0.0000   0.2950
  14.700   1.9228   0.05584   0.05045  -0.1396  0.0092  1.0000  -6.1485   0.0000   0.0000   0.0000   0.2945
  14.800   1.9203   0.05738   0.05203  -0.1392  0.0092  1.0000  -6.1864   0.0000   0.0000   0.0000   0.2941
  14.900   1.9188   0.05878   0.05348  -0.1388  0.0092  1.0000  -6.2297   0.0000   0.0000   0.0000   0.2937
  15.000   1.9176   0.06014   0.05489  -0.1384  0.0091  1.0000  -6.2750   0.0000   0.0000   0.0000   0.2933
  15.100   1.9162   0.06154   0.05634  -0.1381  0.0090  1.0000  -6.3197   0.0000   0.0000   0.0000   0.2929
  15.200   1.9140   0.06306   0.05791  -0.1377  0.0090  1.0000  -6.3601   0.0000   0.0000   0.0000   0.2925
  15.300   1.9097   0.06490   0.05981  -0.1374  0.0089  1.0000  -6.3894   0.0000   0.0000   0.0000   0.2923
  15.400   1.9066   0.06658   0.06154  -0.1372  0.0088  1.0000  -6.4251   0.0000   0.0000   0.0000   0.2920
  15.500   1.9036   0.06822   0.06323  -0.1369  0.0087  1.0000  -6.4624   0.0000   0.0000   0.0000   0.2917
  15.600   1.9004   0.06991   0.06498  -0.1366  0.0086  1.0000  -6.4989   0.0000   0.0000   0.0000   0.2915
  15.700   1.8947   0.07201   0.06714  -0.1365  0.0085  1.0000  -6.5206   0.0000   0.0000   0.0000   0.2914


