xflr5 v6.59

 Calculated polar for: WORTMANN FX 63-137 AIRFOIL

 1 1 Reynolds number fixed          Mach number fixed         

 xtrf =   1.000 (top)        1.000 (bottom)
 Mach =   0.000     Re =     2.400 e 6     Ncrit =   9.000

  alpha     CL        CD       CDp       Cm    Top Xtr Bot Xtr   Cpmin    Chinge    XCp    
 ------- -------- --------- --------- -------- ------- ------- -------- --------- ---------
   0.000   0.8965   0.01013   0.00262  -0.2034  0.1700  0.0192  -1.1261   0.0000   0.0000   0.0000   0.4750
   0.100   0.9079   0.01015   0.00265  -0.2034  0.1695  0.0191  -1.1366   0.0000   0.0000   0.0000   0.4720
   0.200   0.9193   0.01017   0.00267  -0.2034  0.1689  0.0190  -1.1470   0.0000   0.0000   0.0000   0.4692
   0.300   0.9306   0.01020   0.00270  -0.2035  0.1681  0.0189  -1.1574   0.0000   0.0000   0.0000   0.4664
   0.400   0.9419   0.01023   0.00272  -0.2035  0.1673  0.0189  -1.1679   0.0000   0.0000   0.0000   0.4636
   0.500   0.9532   0.01026   0.00276  -0.2035  0.1660  0.0188  -1.1783   0.0000   0.0000   0.0000   0.4609
   0.600   0.9644   0.01029   0.00279  -0.2036  0.1647  0.0188  -1.1888   0.0000   0.0000   0.0000   0.4583
   0.700   0.9739   0.01047   0.00291  -0.2033  0.1482  0.0188  -1.1992   0.0000   0.0000   0.0000   0.4558
   0.800   0.9847   0.01054   0.00296  -0.2032  0.1445  0.0189  -1.2095   0.0000   0.0000   0.0000   0.4533
   0.900   0.9956   0.01060   0.00300  -0.2032  0.1422  0.0192  -1.2200   0.0000   0.0000   0.0000   0.4509
   1.000   1.0066   0.01066   0.00305  -0.2031  0.1407  0.0213  -1.2325   0.0000   0.0000   0.0000   0.4485
   1.100   1.0175   0.01072   0.00313  -0.2031  0.1386  0.0264  -1.2453   0.0000   0.0000   0.0000   0.4462
   1.200   1.0286   0.01076   0.00318  -0.2031  0.1364  0.0352  -1.2582   0.0000   0.0000   0.0000   0.4439
   1.300   1.0395   0.01082   0.00323  -0.2031  0.1341  0.0365  -1.2709   0.0000   0.0000   0.0000   0.4416
   1.400   1.0505   0.01087   0.00327  -0.2030  0.1315  0.0373  -1.2835   0.0000   0.0000   0.0000   0.4394
   1.500   1.0615   0.01092   0.00331  -0.2030  0.1288  0.0378  -1.2960   0.0000   0.0000   0.0000   0.4373
   1.600   1.0725   0.01096   0.00335  -0.2030  0.1263  0.0382  -1.3085   0.0000   0.0000   0.0000   0.4351
   1.700   1.0836   0.01100   0.00340  -0.2030  0.1243  0.0387  -1.3210   0.0000   0.0000   0.0000   0.4331
   1.800   1.0946   0.01104   0.00343  -0.2030  0.1238  0.0402  -1.3350   0.0000   0.0000   0.0000   0.4310
   1.900   1.1057   0.01108   0.00347  -0.2030  0.1234  0.0420  -1.3501   0.0000   0.0000   0.0000   0.4290
   2.000   1.1167   0.01112   0.00351  -0.2030  0.1230  0.0444  -1.3652   0.0000   0.0000   0.0000   0.4271
   2.100   1.1277   0.01116   0.00356  -0.2030  0.1224  0.0471  -1.3803   0.0000   0.0000   0.0000   0.4251
   2.200   1.1387   0.01120   0.00361  -0.2029  0.1217  0.0497  -1.3955   0.0000   0.0000   0.0000   0.4232
   2.300   1.1502   0.01123   0.00368  -0.2030  0.1209  0.0670  -1.4136   0.0000   0.0000   0.0000   0.4214
   2.400   1.1611   0.01127   0.00373  -0.2030  0.1194  0.0767  -1.4322   0.0000   0.0000   0.0000   0.4196
   2.600   1.1818   0.01150   0.00395  -0.2028  0.1026  0.1185  -1.4719   0.0000   0.0000   0.0000   0.4161
   2.700   1.1929   0.01157   0.00403  -0.2029  0.0999  0.1440  -1.4867   0.0000   0.0000   0.0000   0.4144
   2.800   1.2028   0.01169   0.00412  -0.2027  0.0959  0.1499  -1.4981   0.0000   0.0000   0.0000   0.4127
   2.900   1.2134   0.01178   0.00420  -0.2027  0.0904  0.1638  -1.5196   0.0000   0.0000   0.0000   0.4111
   3.000   1.2249   0.01182   0.00428  -0.2028  0.0854  0.1923  -1.5419   0.0000   0.0000   0.0000   0.4095
   3.100   1.2356   0.01187   0.00435  -0.2028  0.0840  0.1978  -1.5657   0.0000   0.0000   0.0000   0.4078
   3.200   1.2468   0.01191   0.00442  -0.2028  0.0832  0.2162  -1.5905   0.0000   0.0000   0.0000   0.4063
   3.300   1.2585   0.01193   0.00449  -0.2030  0.0819  0.2472  -1.6155   0.0000   0.0000   0.0000   0.4048
   3.400   1.2693   0.01199   0.00457  -0.2030  0.0800  0.2608  -1.6400   0.0000   0.0000   0.0000   0.4033
   3.500   1.2789   0.01218   0.00475  -0.2029  0.0669  0.2863  -1.6682   0.0000   0.0000   0.0000   0.4018
   3.600   1.2896   0.01226   0.00484  -0.2029  0.0647  0.3079  -1.6880   0.0000   0.0000   0.0000   0.4003
   3.700   1.3003   0.01233   0.00493  -0.2028  0.0627  0.3264  -1.7079   0.0000   0.0000   0.0000   0.3989
   3.900   1.3222   0.01242   0.00508  -0.2029  0.0630  0.3482  -1.7537   0.0000   0.0000   0.0000   0.3960
   4.000   1.3331   0.01248   0.00516  -0.2029  0.0622  0.3689  -1.7842   0.0000   0.0000   0.0000   0.3946
   4.100   1.3437   0.01256   0.00525  -0.2028  0.0607  0.3840  -1.8177   0.0000   0.0000   0.0000   0.3932
   4.200   1.3543   0.01263   0.00534  -0.2028  0.0590  0.3991  -1.8515   0.0000   0.0000   0.0000   0.3919
   4.300   1.3651   0.01269   0.00544  -0.2028  0.0570  0.4201  -1.8856   0.0000   0.0000   0.0000   0.3906
   4.400   1.3755   0.01277   0.00553  -0.2027  0.0551  0.4316  -1.9193   0.0000   0.0000   0.0000   0.3892
   4.500   1.3858   0.01285   0.00562  -0.2026  0.0536  0.4400  -1.9530   0.0000   0.0000   0.0000   0.3879
   4.600   1.3964   0.01291   0.00572  -0.2026  0.0523  0.4537  -1.9873   0.0000   0.0000   0.0000   0.3866
   4.700   1.4067   0.01299   0.00581  -0.2025  0.0516  0.4632  -2.0218   0.0000   0.0000   0.0000   0.3853
   4.800   1.4170   0.01306   0.00590  -0.2023  0.0514  0.4715  -2.0567   0.0000   0.0000   0.0000   0.3840
   4.900   1.4275   0.01313   0.00600  -0.2023  0.0510  0.4878  -2.0924   0.0000   0.0000   0.0000   0.3828
   5.000   1.4376   0.01322   0.00610  -0.2021  0.0503  0.4985  -2.1277   0.0000   0.0000   0.0000   0.3815
   5.100   1.4478   0.01331   0.00622  -0.2020  0.0493  0.5136  -2.1633   0.0000   0.0000   0.0000   0.3803
   5.200   1.4577   0.01341   0.00634  -0.2018  0.0478  0.5268  -2.1988   0.0000   0.0000   0.0000   0.3791
   5.300   1.4671   0.01353   0.00646  -0.2015  0.0460  0.5321  -2.2337   0.0000   0.0000   0.0000   0.3778
   5.400   1.4765   0.01366   0.00658  -0.2012  0.0444  0.5357  -2.2685   0.0000   0.0000   0.0000   0.3766
   5.500   1.4859   0.01378   0.00670  -0.2009  0.0429  0.5402  -2.3032   0.0000   0.0000   0.0000   0.3754
   5.600   1.4953   0.01390   0.00682  -0.2006  0.0413  0.5445  -2.3380   0.0000   0.0000   0.0000   0.3742
   5.700   1.5047   0.01401   0.00693  -0.2004  0.0397  0.5485  -2.3729   0.0000   0.0000   0.0000   0.3730
   5.800   1.5142   0.01412   0.00704  -0.2001  0.0384  0.5525  -2.4080   0.0000   0.0000   0.0000   0.3718
   5.900   1.5238   0.01422   0.00714  -0.1998  0.0380  0.5565  -2.4440   0.0000   0.0000   0.0000   0.3707
   6.000   1.5329   0.01434   0.00728  -0.1995  0.0369  0.5619  -2.4816   0.0000   0.0000   0.0000   0.3695
   6.100   1.5420   0.01446   0.00740  -0.1992  0.0359  0.5651  -2.5183   0.0000   0.0000   0.0000   0.3683
   6.200   1.5511   0.01459   0.00753  -0.1988  0.0346  0.5747  -2.5555   0.0000   0.0000   0.0000   0.3672
   6.300   1.5567   0.01494   0.00783  -0.1979  0.0255  0.5832  -2.5933   0.0000   0.0000   0.0000   0.3660
   6.400   1.5642   0.01516   0.00803  -0.1973  0.0220  0.5909  -2.6171   0.0000   0.0000   0.0000   0.3648
   6.500   1.5721   0.01535   0.00820  -0.1967  0.0188  0.5965  -2.6415   0.0000   0.0000   0.0000   0.3637
   6.600   1.5809   0.01547   0.00834  -0.1964  0.0169  0.6057  -2.6740   0.0000   0.0000   0.0000   0.3626
   6.700   1.5895   0.01560   0.00848  -0.1959  0.0164  0.6141  -2.7084   0.0000   0.0000   0.0000   0.3615
   6.900   1.5960   0.01628   0.00915  -0.1930  0.0045  0.6245  -2.7669   0.0000   0.0000   0.0000   0.3588
   7.000   1.6030   0.01644   0.00931  -0.1923  0.0043  0.6282  -2.7998   0.0000   0.0000   0.0000   0.3577
   7.100   1.6099   0.01661   0.00949  -0.1915  0.0042  0.6337  -2.8329   0.0000   0.0000   0.0000   0.3565
   7.200   1.6171   0.01677   0.00966  -0.1909  0.0040  0.6421  -2.8667   0.0000   0.0000   0.0000   0.3554
   7.300   1.6244   0.01693   0.00984  -0.1902  0.0038  0.6486  -2.9007   0.0000   0.0000   0.0000   0.3543
   7.400   1.6316   0.01708   0.01001  -0.1895  0.0036  0.6540  -2.9342   0.0000   0.0000   0.0000   0.3532
   7.500   1.6387   0.01725   0.01017  -0.1889  0.0035  0.6582  -2.9671   0.0000   0.0000   0.0000   0.3521
   7.900   1.6672   0.01791   0.01088  -0.1862  0.0025  0.6806  -3.0988   0.0000   0.0000   0.0000   0.3479
   8.000   1.6741   0.01808   0.01106  -0.1855  0.0022  0.6849  -3.1316   0.0000   0.0000   0.0000   0.3468
   8.100   1.6810   0.01826   0.01124  -0.1848  0.0020  0.6883  -3.1647   0.0000   0.0000   0.0000   0.3458
   8.200   1.6879   0.01844   0.01143  -0.1842  0.0017  0.6909  -3.1980   0.0000   0.0000   0.0000   0.3448
   8.300   1.6948   0.01863   0.01163  -0.1835  0.0014  0.6962  -3.2314   0.0000   0.0000   0.0000   0.3438
   8.400   1.7016   0.01883   0.01187  -0.1828  0.0014  0.7023  -3.2652   0.0000   0.0000   0.0000   0.3428
   8.600   1.7148   0.01925   0.01232  -0.1814  0.0014  0.7127  -3.3322   0.0000   0.0000   0.0000   0.3408
   8.700   1.7212   0.01947   0.01255  -0.1807  0.0014  0.7174  -3.3655   0.0000   0.0000   0.0000   0.3398
   8.800   1.7274   0.01970   0.01279  -0.1800  0.0013  0.7221  -3.3985   0.0000   0.0000   0.0000   0.3388
   8.900   1.7336   0.01994   0.01306  -0.1792  0.0013  0.7305  -3.4315   0.0000   0.0000   0.0000   0.3378
   9.000   1.7397   0.02018   0.01332  -0.1785  0.0013  0.7385  -3.4645   0.0000   0.0000   0.0000   0.3368
   9.100   1.7457   0.02044   0.01360  -0.1778  0.0013  0.7456  -3.4975   0.0000   0.0000   0.0000   0.3359
   9.200   1.7517   0.02070   0.01388  -0.1770  0.0013  0.7519  -3.5304   0.0000   0.0000   0.0000   0.3349
   9.300   1.7577   0.02097   0.01418  -0.1763  0.0013  0.7616  -3.5634   0.0000   0.0000   0.0000   0.3340
   9.400   1.7635   0.02125   0.01449  -0.1756  0.0013  0.7706  -3.5961   0.0000   0.0000   0.0000   0.3330
  10.000   1.7981   0.02309   0.01654  -0.1714  0.0013  0.8417  -3.8364   0.0000   0.0000   0.0000   0.3277
  10.100   1.8037   0.02343   0.01694  -0.1707  0.0013  0.8617  -3.8778   0.0000   0.0000   0.0000   0.3268
  10.200   1.8092   0.02373   0.01734  -0.1701  0.0013  0.9095  -3.9187   0.0000   0.0000   0.0000   0.3259
  11.200   1.8455   0.02821   0.02216  -0.1611  0.0018  1.0000  -4.2588   0.0000   0.0000   0.0000   0.3172
  11.300   1.8490   0.02875   0.02272  -0.1603  0.0019  1.0000  -4.2961   0.0000   0.0000   0.0000   0.3164
  11.400   1.8526   0.02930   0.02329  -0.1596  0.0020  1.0000  -4.3337   0.0000   0.0000   0.0000   0.3157
  11.500   1.8564   0.02985   0.02385  -0.1589  0.0021  1.0000  -4.3714   0.0000   0.0000   0.0000   0.3149
  11.600   1.8599   0.03042   0.02445  -0.1582  0.0022  1.0000  -4.4349   0.0000   0.0000   0.0000   0.3141
  11.700   1.8624   0.03108   0.02513  -0.1574  0.0023  1.0000  -4.4993   0.0000   0.0000   0.0000   0.3134
  11.800   1.8649   0.03175   0.02584  -0.1566  0.0025  1.0000  -4.5618   0.0000   0.0000   0.0000   0.3126
  11.900   1.8675   0.03243   0.02654  -0.1559  0.0028  1.0000  -4.6180   0.0000   0.0000   0.0000   0.3119


