xflr5 v6.59

 Calculated polar for: WORTMANN FX 63-137 AIRFOIL

 1 1 Reynolds number fixed          Mach number fixed         

 xtrf =   1.000 (top)        1.000 (bottom)
 Mach =   0.000     Re =     4.200 e 6     Ncrit =   9.000

  alpha     CL        CD       CDp       Cm    Top Xtr Bot Xtr   Cpmin    Chinge    XCp    
 ------- -------- --------- --------- -------- ------- ------- -------- --------- ---------
   0.000   0.9075   0.00952   0.00252  -0.2058  0.1231  0.0186  -1.1371   0.0000   0.0000   0.0000   0.4749
   0.100   0.9189   0.00955   0.00254  -0.2059  0.1228  0.0185  -1.1475   0.0000   0.0000   0.0000   0.4720
   0.200   0.9303   0.00957   0.00257  -0.2059  0.1225  0.0184  -1.1579   0.0000   0.0000   0.0000   0.4692
   0.300   0.9417   0.00960   0.00259  -0.2059  0.1221  0.0182  -1.1683   0.0000   0.0000   0.0000   0.4664
   0.400   0.9530   0.00963   0.00262  -0.2060  0.1216  0.0180  -1.1788   0.0000   0.0000   0.0000   0.4637
   0.500   0.9643   0.00966   0.00265  -0.2060  0.1209  0.0178  -1.1892   0.0000   0.0000   0.0000   0.4610
   0.600   0.9756   0.00969   0.00269  -0.2060  0.1199  0.0177  -1.1996   0.0000   0.0000   0.0000   0.4585
   0.800   0.9964   0.00990   0.00284  -0.2057  0.1030  0.0174  -1.2234   0.0000   0.0000   0.0000   0.4535
   0.900   1.0075   0.00994   0.00288  -0.2057  0.1022  0.0175  -1.2358   0.0000   0.0000   0.0000   0.4511
   1.000   1.0186   0.00999   0.00292  -0.2057  0.1012  0.0176  -1.2481   0.0000   0.0000   0.0000   0.4487
   1.100   1.0297   0.01003   0.00296  -0.2057  0.1001  0.0178  -1.2603   0.0000   0.0000   0.0000   0.4463
   1.200   1.0407   0.01009   0.00300  -0.2057  0.0990  0.0213  -1.2726   0.0000   0.0000   0.0000   0.4441
   1.300   1.0515   0.01014   0.00304  -0.2056  0.0979  0.0246  -1.2863   0.0000   0.0000   0.0000   0.4418
   1.400   1.0627   0.01018   0.00310  -0.2056  0.0968  0.0261  -1.3014   0.0000   0.0000   0.0000   0.4396
   1.500   1.0740   0.01022   0.00314  -0.2057  0.0957  0.0341  -1.3165   0.0000   0.0000   0.0000   0.4375
   1.600   1.0851   0.01026   0.00317  -0.2057  0.0944  0.0356  -1.3315   0.0000   0.0000   0.0000   0.4354
   1.700   1.0962   0.01030   0.00321  -0.2057  0.0932  0.0365  -1.3465   0.0000   0.0000   0.0000   0.4334
   1.800   1.1072   0.01034   0.00325  -0.2057  0.0918  0.0370  -1.3616   0.0000   0.0000   0.0000   0.4313
   1.900   1.1183   0.01039   0.00329  -0.2056  0.0903  0.0375  -1.3767   0.0000   0.0000   0.0000   0.4293
   2.000   1.1293   0.01043   0.00333  -0.2056  0.0889  0.0379  -1.3918   0.0000   0.0000   0.0000   0.4274
   2.100   1.1403   0.01047   0.00337  -0.2056  0.0877  0.0383  -1.4069   0.0000   0.0000   0.0000   0.4255
   2.200   1.1514   0.01051   0.00341  -0.2056  0.0865  0.0397  -1.4220   0.0000   0.0000   0.0000   0.4236
   2.300   1.1624   0.01055   0.00346  -0.2056  0.0856  0.0462  -1.4371   0.0000   0.0000   0.0000   0.4218
   2.400   1.1733   0.01060   0.00352  -0.2056  0.0839  0.0484  -1.4521   0.0000   0.0000   0.0000   0.4199
   2.500   1.1841   0.01066   0.00359  -0.2055  0.0821  0.0506  -1.4671   0.0000   0.0000   0.0000   0.4182
   2.600   1.1933   0.01087   0.00376  -0.2052  0.0665  0.0635  -1.4887   0.0000   0.0000   0.0000   0.4164
   2.700   1.2032   0.01100   0.00385  -0.2050  0.0615  0.0666  -1.5078   0.0000   0.0000   0.0000   0.4147
   2.800   1.2138   0.01108   0.00391  -0.2049  0.0586  0.0748  -1.5263   0.0000   0.0000   0.0000   0.4130
   2.900   1.2246   0.01114   0.00397  -0.2048  0.0558  0.0807  -1.5449   0.0000   0.0000   0.0000   0.4113
   3.000   1.2354   0.01119   0.00403  -0.2048  0.0535  0.0838  -1.5635   0.0000   0.0000   0.0000   0.4097
   3.100   1.2466   0.01123   0.00409  -0.2048  0.0518  0.1002  -1.5847   0.0000   0.0000   0.0000   0.4081
   3.200   1.2573   0.01128   0.00414  -0.2048  0.0514  0.1020  -1.6077   0.0000   0.0000   0.0000   0.4065
   3.300   1.2681   0.01134   0.00420  -0.2047  0.0511  0.1034  -1.6308   0.0000   0.0000   0.0000   0.4049
   3.400   1.2788   0.01140   0.00425  -0.2047  0.0507  0.1085  -1.6541   0.0000   0.0000   0.0000   0.4034
   3.500   1.2895   0.01145   0.00431  -0.2046  0.0503  0.1147  -1.6776   0.0000   0.0000   0.0000   0.4018
   3.600   1.3003   0.01151   0.00438  -0.2046  0.0497  0.1205  -1.7013   0.0000   0.0000   0.0000   0.4003
   3.800   1.3219   0.01162   0.00452  -0.2045  0.0479  0.1440  -1.7499   0.0000   0.0000   0.0000   0.3974
   3.900   1.3330   0.01164   0.00455  -0.2045  0.0504  0.1440  -1.7733   0.0000   0.0000   0.0000   0.3960
   4.000   1.3436   0.01170   0.00461  -0.2044  0.0502  0.1465  -1.8072   0.0000   0.0000   0.0000   0.3946
   4.100   1.3543   0.01175   0.00468  -0.2044  0.0498  0.1566  -1.8414   0.0000   0.0000   0.0000   0.3932
   4.200   1.3651   0.01181   0.00475  -0.2044  0.0489  0.1679  -1.8761   0.0000   0.0000   0.0000   0.3918
   4.300   1.3759   0.01188   0.00485  -0.2044  0.0471  0.1933  -1.9112   0.0000   0.0000   0.0000   0.3905
   4.400   1.3858   0.01199   0.00495  -0.2042  0.0447  0.1975  -1.9451   0.0000   0.0000   0.0000   0.3892
   4.500   1.3961   0.01208   0.00505  -0.2041  0.0420  0.2134  -1.9795   0.0000   0.0000   0.0000   0.3878
   4.600   1.4074   0.01213   0.00514  -0.2042  0.0393  0.2475  -2.0153   0.0000   0.0000   0.0000   0.3866
   4.700   1.4177   0.01221   0.00522  -0.2041  0.0382  0.2530  -2.0502   0.0000   0.0000   0.0000   0.3853
   4.800   1.4288   0.01225   0.00530  -0.2041  0.0380  0.2749  -2.0866   0.0000   0.0000   0.0000   0.3841
   4.900   1.4401   0.01228   0.00538  -0.2043  0.0378  0.3062  -2.1237   0.0000   0.0000   0.0000   0.3829
   5.000   1.4508   0.01234   0.00546  -0.2042  0.0376  0.3228  -2.1600   0.0000   0.0000   0.0000   0.3817
   5.100   1.4626   0.01236   0.00555  -0.2045  0.0373  0.3655  -2.1983   0.0000   0.0000   0.0000   0.3806
   5.200   1.4728   0.01244   0.00563  -0.2044  0.0370  0.3704  -2.2344   0.0000   0.0000   0.0000   0.3794
   5.300   1.4840   0.01248   0.00573  -0.2045  0.0366  0.4016  -2.2723   0.0000   0.0000   0.0000   0.3782
   5.400   1.4956   0.01252   0.00584  -0.2047  0.0360  0.4497  -2.3113   0.0000   0.0000   0.0000   0.3772
   5.500   1.5065   0.01258   0.00595  -0.2048  0.0353  0.4809  -2.3495   0.0000   0.0000   0.0000   0.3760
   5.600   1.5138   0.01287   0.00619  -0.2041  0.0255  0.4898  -2.3859   0.0000   0.0000   0.0000   0.3748
   5.700   1.5225   0.01305   0.00634  -0.2037  0.0222  0.4941  -2.4111   0.0000   0.0000   0.0000   0.3736
   5.800   1.5315   0.01320   0.00648  -0.2033  0.0189  0.4968  -2.4383   0.0000   0.0000   0.0000   0.3724
   6.000   1.5455   0.01379   0.00703  -0.2018  0.0041  0.5021  -2.5090   0.0000   0.0000   0.0000   0.3699
   6.100   1.5548   0.01391   0.00715  -0.2015  0.0038  0.5076  -2.5453   0.0000   0.0000   0.0000   0.3688
   6.200   1.5642   0.01402   0.00727  -0.2012  0.0036  0.5129  -2.5814   0.0000   0.0000   0.0000   0.3676
   6.300   1.5736   0.01413   0.00739  -0.2009  0.0034  0.5175  -2.6176   0.0000   0.0000   0.0000   0.3665
   6.400   1.5829   0.01424   0.00751  -0.2006  0.0032  0.5215  -2.6539   0.0000   0.0000   0.0000   0.3654
   6.500   1.5922   0.01435   0.00762  -0.2003  0.0031  0.5251  -2.6900   0.0000   0.0000   0.0000   0.3643
   6.600   1.6014   0.01446   0.00773  -0.2000  0.0029  0.5292  -2.7261   0.0000   0.0000   0.0000   0.3632
   6.700   1.6104   0.01458   0.00785  -0.1996  0.0027  0.5326  -2.7621   0.0000   0.0000   0.0000   0.3622
   6.800   1.6197   0.01469   0.00797  -0.1994  0.0026  0.5443  -2.7985   0.0000   0.0000   0.0000   0.3611
   6.900   1.6289   0.01480   0.00810  -0.1991  0.0024  0.5537  -2.8350   0.0000   0.0000   0.0000   0.3601
   7.000   1.6378   0.01492   0.00823  -0.1987  0.0022  0.5586  -2.8712   0.0000   0.0000   0.0000   0.3590
   7.100   1.6466   0.01504   0.00835  -0.1983  0.0021  0.5606  -2.9072   0.0000   0.0000   0.0000   0.3579
   7.200   1.6552   0.01516   0.00847  -0.1979  0.0019  0.5623  -2.9432   0.0000   0.0000   0.0000   0.3569
   7.300   1.6636   0.01529   0.00860  -0.1974  0.0018  0.5637  -2.9790   0.0000   0.0000   0.0000   0.3558
   7.400   1.6715   0.01541   0.00872  -0.1968  0.0017  0.5649  -3.0138   0.0000   0.0000   0.0000   0.3547
   7.500   1.6784   0.01554   0.00885  -0.1960  0.0016  0.5679  -3.0472   0.0000   0.0000   0.0000   0.3536
   7.600   1.6855   0.01566   0.00899  -0.1953  0.0014  0.5746  -3.0809   0.0000   0.0000   0.0000   0.3525
   7.700   1.6929   0.01579   0.00913  -0.1946  0.0014  0.5816  -3.1152   0.0000   0.0000   0.0000   0.3515
   7.800   1.7001   0.01593   0.00928  -0.1940  0.0014  0.5882  -3.1496   0.0000   0.0000   0.0000   0.3504
   7.900   1.7072   0.01607   0.00943  -0.1933  0.0013  0.5939  -3.1837   0.0000   0.0000   0.0000   0.3493
   8.100   1.7218   0.01636   0.00975  -0.1919  0.0013  0.6111  -3.2530   0.0000   0.0000   0.0000   0.3473
   8.200   1.7289   0.01651   0.00992  -0.1913  0.0013  0.6154  -3.2877   0.0000   0.0000   0.0000   0.3463
   8.300   1.7360   0.01666   0.01009  -0.1906  0.0013  0.6241  -3.3223   0.0000   0.0000   0.0000   0.3452
   8.400   1.7428   0.01683   0.01026  -0.1898  0.0013  0.6285  -3.3564   0.0000   0.0000   0.0000   0.3442
   8.500   1.7497   0.01699   0.01044  -0.1891  0.0013  0.6368  -3.3908   0.0000   0.0000   0.0000   0.3432
   8.600   1.7568   0.01716   0.01063  -0.1885  0.0013  0.6469  -3.4259   0.0000   0.0000   0.0000   0.3422
   8.700   1.7637   0.01733   0.01082  -0.1878  0.0013  0.6544  -3.4604   0.0000   0.0000   0.0000   0.3412
   8.800   1.7703   0.01751   0.01101  -0.1870  0.0013  0.6599  -3.4946   0.0000   0.0000   0.0000   0.3402
   8.900   1.7771   0.01770   0.01121  -0.1864  0.0013  0.6699  -3.5293   0.0000   0.0000   0.0000   0.3392
   9.000   1.7840   0.01788   0.01142  -0.1857  0.0013  0.6781  -3.5643   0.0000   0.0000   0.0000   0.3383
   9.100   1.7906   0.01808   0.01163  -0.1850  0.0013  0.6838  -3.5989   0.0000   0.0000   0.0000   0.3373
   9.200   1.7970   0.01829   0.01184  -0.1842  0.0013  0.6876  -3.6329   0.0000   0.0000   0.0000   0.3364
   9.300   1.8031   0.01850   0.01207  -0.1834  0.0013  0.6902  -3.6771   0.0000   0.0000   0.0000   0.3354
   9.400   1.8092   0.01873   0.01230  -0.1827  0.0013  0.6933  -3.7220   0.0000   0.0000   0.0000   0.3344
   9.500   1.8153   0.01895   0.01254  -0.1819  0.0013  0.6999  -3.7672   0.0000   0.0000   0.0000   0.3335
   9.600   1.8213   0.01919   0.01280  -0.1811  0.0012  0.7056  -3.8119   0.0000   0.0000   0.0000   0.3325
   9.700   1.8270   0.01943   0.01306  -0.1803  0.0012  0.7107  -3.8560   0.0000   0.0000   0.0000   0.3316
   9.800   1.8327   0.01969   0.01333  -0.1795  0.0012  0.7154  -3.9003   0.0000   0.0000   0.0000   0.3307
   9.900   1.8385   0.01995   0.01360  -0.1787  0.0012  0.7196  -3.9450   0.0000   0.0000   0.0000   0.3297
  10.000   1.8443   0.02022   0.01390  -0.1780  0.0012  0.7271  -3.9895   0.0000   0.0000   0.0000   0.3288
  10.100   1.8498   0.02050   0.01421  -0.1772  0.0012  0.7364  -4.0335   0.0000   0.0000   0.0000   0.3279
  10.200   1.8553   0.02080   0.01452  -0.1764  0.0012  0.7442  -4.0774   0.0000   0.0000   0.0000   0.3270
  10.300   1.8608   0.02109   0.01484  -0.1756  0.0012  0.7496  -4.1212   0.0000   0.0000   0.0000   0.3261
  10.400   1.8665   0.02140   0.01517  -0.1749  0.0012  0.7599  -4.1654   0.0000   0.0000   0.0000   0.3253
  10.500   1.8715   0.02173   0.01555  -0.1741  0.0012  0.7694  -4.2197   0.0000   0.0000   0.0000   0.3244
  10.600   1.8767   0.02207   0.01591  -0.1733  0.0012  0.7774  -4.2925   0.0000   0.0000   0.0000   0.3235
  10.700   1.8822   0.02240   0.01628  -0.1726  0.0012  0.7907  -4.3665   0.0000   0.0000   0.0000   0.3227
  10.800   1.8873   0.02276   0.01667  -0.1719  0.0012  0.8018  -4.4370   0.0000   0.0000   0.0000   0.3218
  10.900   1.8921   0.02315   0.01710  -0.1711  0.0012  0.8144  -4.5046   0.0000   0.0000   0.0000   0.3210
  11.000   1.8968   0.02354   0.01754  -0.1703  0.0012  0.8276  -4.5703   0.0000   0.0000   0.0000   0.3201
  11.100   1.9019   0.02394   0.01800  -0.1696  0.0012  0.8450  -4.6345   0.0000   0.0000   0.0000   0.3193
  11.200   1.9063   0.02439   0.01852  -0.1689  0.0012  0.8696  -4.6917   0.0000   0.0000   0.0000   0.3185


