xflr5 v6.59

 Calculated polar for: WORTMANN FX 63-137 AIRFOIL

 1 1 Reynolds number fixed          Mach number fixed         

 xtrf =   1.000 (top)        1.000 (bottom)
 Mach =   0.000     Re =     1.800 e 6     Ncrit =   9.000

  alpha     CL        CD       CDp       Cm    Top Xtr Bot Xtr   Cpmin    Chinge    XCp    
 ------- -------- --------- --------- -------- ------- ------- -------- --------- ---------
   0.000   0.8932   0.01023   0.00256  -0.2025  0.2219  0.0198  -1.1116   0.0000   0.0000   0.0000   0.4748
   0.100   0.9045   0.01025   0.00259  -0.2025  0.2201  0.0198  -1.1221   0.0000   0.0000   0.0000   0.4719
   0.200   0.9159   0.01028   0.00261  -0.2025  0.2184  0.0198  -1.1328   0.0000   0.0000   0.0000   0.4690
   0.300   0.9271   0.01032   0.00264  -0.2025  0.2159  0.0197  -1.1456   0.0000   0.0000   0.0000   0.4662
   0.400   0.9378   0.01040   0.00270  -0.2025  0.2079  0.0197  -1.1598   0.0000   0.0000   0.0000   0.4635
   0.500   0.9474   0.01057   0.00280  -0.2022  0.1940  0.0198  -1.1741   0.0000   0.0000   0.0000   0.4608
   0.600   0.9582   0.01063   0.00285  -0.2022  0.1907  0.0198  -1.1850   0.0000   0.0000   0.0000   0.4582
   0.700   0.9691   0.01070   0.00290  -0.2021  0.1874  0.0200  -1.1944   0.0000   0.0000   0.0000   0.4557
   0.800   0.9798   0.01077   0.00295  -0.2020  0.1841  0.0202  -1.2026   0.0000   0.0000   0.0000   0.4532
   0.900   0.9906   0.01084   0.00300  -0.2020  0.1808  0.0209  -1.2113   0.0000   0.0000   0.0000   0.4507
   1.000   1.0019   0.01088   0.00309  -0.2020  0.1779  0.0347  -1.2221   0.0000   0.0000   0.0000   0.4483
   1.100   1.0129   0.01093   0.00313  -0.2020  0.1741  0.0368  -1.2336   0.0000   0.0000   0.0000   0.4460
   1.200   1.0239   0.01097   0.00317  -0.2020  0.1709  0.0377  -1.2480   0.0000   0.0000   0.0000   0.4437
   1.300   1.0351   0.01101   0.00321  -0.2020  0.1699  0.0382  -1.2628   0.0000   0.0000   0.0000   0.4414
   1.400   1.0462   0.01104   0.00325  -0.2020  0.1692  0.0390  -1.2777   0.0000   0.0000   0.0000   0.4392
   1.500   1.0573   0.01108   0.00329  -0.2020  0.1683  0.0406  -1.2927   0.0000   0.0000   0.0000   0.4371
   1.600   1.0684   0.01112   0.00332  -0.2020  0.1673  0.0426  -1.3078   0.0000   0.0000   0.0000   0.4349
   1.700   1.0794   0.01116   0.00337  -0.2020  0.1657  0.0451  -1.3231   0.0000   0.0000   0.0000   0.4329
   1.800   1.0903   0.01121   0.00341  -0.2020  0.1638  0.0476  -1.3385   0.0000   0.0000   0.0000   0.4308
   1.900   1.0992   0.01143   0.00357  -0.2016  0.1463  0.0495  -1.3577   0.0000   0.0000   0.0000   0.4288
   2.000   1.1098   0.01150   0.00364  -0.2015  0.1437  0.0516  -1.3711   0.0000   0.0000   0.0000   0.4269
   2.100   1.1207   0.01157   0.00370  -0.2015  0.1410  0.0639  -1.3840   0.0000   0.0000   0.0000   0.4249
   2.200   1.1311   0.01165   0.00377  -0.2014  0.1384  0.0664  -1.3953   0.0000   0.0000   0.0000   0.4230
   2.300   1.1417   0.01173   0.00384  -0.2013  0.1358  0.0738  -1.4062   0.0000   0.0000   0.0000   0.4212
   2.400   1.1547   0.01170   0.00393  -0.2018  0.1327  0.1508  -1.4200   0.0000   0.0000   0.0000   0.4195
   2.500   1.1672   0.01169   0.00399  -0.2022  0.1293  0.2013  -1.4389   0.0000   0.0000   0.0000   0.4179
   2.600   1.1793   0.01168   0.00406  -0.2026  0.1261  0.2369  -1.4576   0.0000   0.0000   0.0000   0.4162
   2.700   1.1906   0.01172   0.00412  -0.2026  0.1241  0.2541  -1.4757   0.0000   0.0000   0.0000   0.4145
   2.800   1.2026   0.01172   0.00418  -0.2029  0.1236  0.2827  -1.4950   0.0000   0.0000   0.0000   0.4129
   2.900   1.2143   0.01173   0.00424  -0.2031  0.1229  0.3093  -1.5153   0.0000   0.0000   0.0000   0.4113
   3.000   1.2260   0.01175   0.00431  -0.2033  0.1219  0.3349  -1.5381   0.0000   0.0000   0.0000   0.4097
   3.100   1.2375   0.01178   0.00440  -0.2035  0.1191  0.3666  -1.5609   0.0000   0.0000   0.0000   0.4082
   3.200   1.2458   0.01205   0.00460  -0.2030  0.1022  0.3775  -1.5807   0.0000   0.0000   0.0000   0.4066
   3.300   1.2559   0.01218   0.00471  -0.2029  0.0979  0.3941  -1.6023   0.0000   0.0000   0.0000   0.4050
   3.400   1.2659   0.01230   0.00483  -0.2028  0.0929  0.4089  -1.6238   0.0000   0.0000   0.0000   0.4035
   3.500   1.2765   0.01239   0.00494  -0.2027  0.0874  0.4263  -1.6456   0.0000   0.0000   0.0000   0.4020
   3.600   1.2869   0.01247   0.00502  -0.2026  0.0843  0.4337  -1.6681   0.0000   0.0000   0.0000   0.4005
   3.700   1.2975   0.01253   0.00511  -0.2026  0.0835  0.4435  -1.6931   0.0000   0.0000   0.0000   0.3990
   3.800   1.3081   0.01260   0.00520  -0.2025  0.0824  0.4537  -1.7176   0.0000   0.0000   0.0000   0.3975
   3.900   1.3188   0.01265   0.00527  -0.2024  0.0836  0.4534  -1.7419   0.0000   0.0000   0.0000   0.3961
   4.000   1.3294   0.01271   0.00534  -0.2023  0.0834  0.4625  -1.7753   0.0000   0.0000   0.0000   0.3946
   4.100   1.3398   0.01278   0.00543  -0.2022  0.0825  0.4697  -1.8086   0.0000   0.0000   0.0000   0.3932
   4.200   1.3503   0.01285   0.00552  -0.2022  0.0811  0.4814  -1.8423   0.0000   0.0000   0.0000   0.3919
   4.300   1.3604   0.01295   0.00563  -0.2020  0.0782  0.4902  -1.8754   0.0000   0.0000   0.0000   0.3905
   4.400   1.3683   0.01321   0.00583  -0.2015  0.0662  0.4953  -1.9052   0.0000   0.0000   0.0000   0.3891
   4.500   1.3778   0.01333   0.00593  -0.2012  0.0644  0.4988  -1.9378   0.0000   0.0000   0.0000   0.3877
   4.600   1.3874   0.01345   0.00604  -0.2009  0.0626  0.5041  -1.9704   0.0000   0.0000   0.0000   0.3864
   4.700   1.3974   0.01356   0.00615  -0.2008  0.0608  0.5159  -2.0039   0.0000   0.0000   0.0000   0.3851
   4.800   1.4073   0.01366   0.00626  -0.2006  0.0588  0.5265  -2.0373   0.0000   0.0000   0.0000   0.3838
   4.900   1.4169   0.01377   0.00637  -0.2003  0.0567  0.5329  -2.0703   0.0000   0.0000   0.0000   0.3825
   5.000   1.4270   0.01386   0.00649  -0.2002  0.0549  0.5460  -2.1042   0.0000   0.0000   0.0000   0.3812
   5.100   1.4368   0.01396   0.00660  -0.2000  0.0532  0.5548  -2.1379   0.0000   0.0000   0.0000   0.3799
   5.200   1.4465   0.01406   0.00671  -0.1997  0.0517  0.5597  -2.1715   0.0000   0.0000   0.0000   0.3787
   5.300   1.4561   0.01416   0.00681  -0.1995  0.0515  0.5624  -2.2065   0.0000   0.0000   0.0000   0.3774
   5.400   1.4657   0.01426   0.00692  -0.1992  0.0511  0.5647  -2.2416   0.0000   0.0000   0.0000   0.3762
   5.500   1.4752   0.01436   0.00703  -0.1989  0.0506  0.5696  -2.2768   0.0000   0.0000   0.0000   0.3750
   5.600   1.4847   0.01447   0.00716  -0.1987  0.0498  0.5765  -2.3121   0.0000   0.0000   0.0000   0.3738
   5.700   1.4941   0.01459   0.00729  -0.1984  0.0488  0.5830  -2.3474   0.0000   0.0000   0.0000   0.3726
   5.800   1.5033   0.01471   0.00742  -0.1981  0.0476  0.5896  -2.3824   0.0000   0.0000   0.0000   0.3714
   5.900   1.5122   0.01484   0.00755  -0.1977  0.0464  0.5955  -2.4172   0.0000   0.0000   0.0000   0.3703
   6.000   1.5211   0.01498   0.00770  -0.1973  0.0451  0.6047  -2.4522   0.0000   0.0000   0.0000   0.3691
   6.100   1.5287   0.01520   0.00795  -0.1968  0.0395  0.6182  -2.4861   0.0000   0.0000   0.0000   0.3679
   6.200   1.5376   0.01533   0.00808  -0.1964  0.0381  0.6248  -2.5211   0.0000   0.0000   0.0000   0.3667
   6.300   1.5464   0.01545   0.00820  -0.1960  0.0378  0.6287  -2.5568   0.0000   0.0000   0.0000   0.3656
   6.400   1.5553   0.01557   0.00832  -0.1956  0.0374  0.6345  -2.5927   0.0000   0.0000   0.0000   0.3645
   6.500   1.5640   0.01568   0.00845  -0.1952  0.0369  0.6411  -2.6284   0.0000   0.0000   0.0000   0.3634
   6.600   1.5721   0.01580   0.00859  -0.1947  0.0364  0.6465  -2.6634   0.0000   0.0000   0.0000   0.3622
   6.700   1.5796   0.01593   0.00872  -0.1940  0.0358  0.6513  -2.6975   0.0000   0.0000   0.0000   0.3611
   6.800   1.5869   0.01607   0.00887  -0.1933  0.0348  0.6557  -2.7319   0.0000   0.0000   0.0000   0.3599
   6.900   1.5938   0.01624   0.00903  -0.1926  0.0332  0.6592  -2.7664   0.0000   0.0000   0.0000   0.3587
   7.100   1.6016   0.01690   0.00961  -0.1901  0.0224  0.6694  -2.8224   0.0000   0.0000   0.0000   0.3562
   7.200   1.6073   0.01715   0.00984  -0.1891  0.0195  0.6745  -2.8417   0.0000   0.0000   0.0000   0.3551
   7.300   1.6143   0.01732   0.01002  -0.1884  0.0171  0.6792  -2.8695   0.0000   0.0000   0.0000   0.3540
   7.400   1.6213   0.01749   0.01020  -0.1877  0.0163  0.6835  -2.9015   0.0000   0.0000   0.0000   0.3529
   7.600   1.6255   0.01837   0.01105  -0.1847  0.0046  0.6899  -2.9562   0.0000   0.0000   0.0000   0.3503
   7.700   1.6319   0.01858   0.01127  -0.1839  0.0043  0.6937  -2.9891   0.0000   0.0000   0.0000   0.3492
   7.800   1.6385   0.01880   0.01151  -0.1832  0.0041  0.6997  -3.0226   0.0000   0.0000   0.0000   0.3482
   7.900   1.6449   0.01902   0.01174  -0.1824  0.0039  0.7051  -3.0559   0.0000   0.0000   0.0000   0.3471
   8.000   1.6514   0.01924   0.01198  -0.1817  0.0037  0.7103  -3.0886   0.0000   0.0000   0.0000   0.3461
   8.100   1.6581   0.01945   0.01219  -0.1810  0.0035  0.7152  -3.1210   0.0000   0.0000   0.0000   0.3450
   8.200   1.6648   0.01966   0.01241  -0.1804  0.0032  0.7198  -3.1528   0.0000   0.0000   0.0000   0.3440
   8.400   1.6784   0.02007   0.01286  -0.1791  0.0024  0.7343  -3.2169   0.0000   0.0000   0.0000   0.3420
   8.500   1.6850   0.02029   0.01309  -0.1784  0.0021  0.7417  -3.2489   0.0000   0.0000   0.0000   0.3410
   8.600   1.6908   0.02055   0.01339  -0.1776  0.0026  0.7482  -3.2819   0.0000   0.0000   0.0000   0.3400
   8.700   1.6974   0.02077   0.01364  -0.1770  0.0023  0.7562  -3.3144   0.0000   0.0000   0.0000   0.3391
   8.800   1.7041   0.02100   0.01389  -0.1764  0.0018  0.7653  -3.3471   0.0000   0.0000   0.0000   0.3381
   8.900   1.7099   0.02128   0.01420  -0.1756  0.0014  0.7738  -3.3783   0.0000   0.0000   0.0000   0.3371
   9.000   1.7159   0.02156   0.01450  -0.1749  0.0014  0.7831  -3.4105   0.0000   0.0000   0.0000   0.3362
   9.100   1.7220   0.02183   0.01481  -0.1742  0.0014  0.7943  -3.4432   0.0000   0.0000   0.0000   0.3352
   9.200   1.7280   0.02212   0.01512  -0.1735  0.0014  0.8042  -3.4756   0.0000   0.0000   0.0000   0.3343
   9.300   1.7340   0.02241   0.01546  -0.1729  0.0014  0.8165  -3.5081   0.0000   0.0000   0.0000   0.3334
   9.400   1.7397   0.02272   0.01580  -0.1722  0.0014  0.8288  -3.5401   0.0000   0.0000   0.0000   0.3325
   9.500   1.7457   0.02302   0.01615  -0.1715  0.0014  0.8446  -3.5727   0.0000   0.0000   0.0000   0.3316
   9.600   1.7517   0.02332   0.01650  -0.1709  0.0014  0.8651  -3.6053   0.0000   0.0000   0.0000   0.3307
  10.500   1.7896   0.02669   0.02023  -0.1631  0.0014  1.0000  -3.9227   0.0000   0.0000   0.0000   0.3225
  10.600   1.7934   0.02718   0.02074  -0.1623  0.0014  1.0000  -3.9586   0.0000   0.0000   0.0000   0.3216
  10.700   1.7975   0.02767   0.02125  -0.1615  0.0014  1.0000  -3.9952   0.0000   0.0000   0.0000   0.3208
  10.800   1.8016   0.02816   0.02176  -0.1608  0.0015  1.0000  -4.0320   0.0000   0.0000   0.0000   0.3200
  10.900   1.8052   0.02870   0.02233  -0.1600  0.0015  1.0000  -4.0675   0.0000   0.0000   0.0000   0.3192
  11.000   1.8087   0.02926   0.02292  -0.1593  0.0015  1.0000  -4.1022   0.0000   0.0000   0.0000   0.3184
  11.100   1.8123   0.02981   0.02350  -0.1586  0.0016  1.0000  -4.1381   0.0000   0.0000   0.0000   0.3176
  11.200   1.8161   0.03036   0.02407  -0.1579  0.0016  1.0000  -4.1746   0.0000   0.0000   0.0000   0.3169
  11.300   1.8193   0.03097   0.02470  -0.1571  0.0016  1.0000  -4.2095   0.0000   0.0000   0.0000   0.3161
  11.400   1.8223   0.03159   0.02535  -0.1564  0.0017  1.0000  -4.2446   0.0000   0.0000   0.0000   0.3153
  11.500   1.8257   0.03220   0.02598  -0.1557  0.0017  1.0000  -4.2808   0.0000   0.0000   0.0000   0.3146
  11.600   1.8292   0.03280   0.02660  -0.1551  0.0018  1.0000  -4.3175   0.0000   0.0000   0.0000   0.3139
  11.700   1.8324   0.03343   0.02725  -0.1544  0.0018  1.0000  -4.3536   0.0000   0.0000   0.0000   0.3131
  11.800   1.8350   0.03413   0.02797  -0.1537  0.0018  1.0000  -4.4167   0.0000   0.0000   0.0000   0.3124
  11.900   1.8377   0.03482   0.02869  -0.1530  0.0019  1.0000  -4.4819   0.0000   0.0000   0.0000   0.3117
  12.000   1.8406   0.03549   0.02939  -0.1524  0.0020  1.0000  -4.5485   0.0000   0.0000   0.0000   0.3110
  12.100   1.8435   0.03618   0.03010  -0.1517  0.0020  1.0000  -4.6154   0.0000   0.0000   0.0000   0.3103
  12.200   1.8455   0.03696   0.03090  -0.1511  0.0021  1.0000  -4.6776   0.0000   0.0000   0.0000   0.3097
  12.300   1.8473   0.03776   0.03174  -0.1504  0.0021  1.0000  -4.7392   0.0000   0.0000   0.0000   0.3090
  12.400   1.8494   0.03854   0.03254  -0.1498  0.0022  1.0000  -4.8023   0.0000   0.0000   0.0000   0.3083
  12.500   1.8517   0.03932   0.03335  -0.1492  0.0023  1.0000  -4.8654   0.0000   0.0000   0.0000   0.3077
  12.600   1.8538   0.04012   0.03417  -0.1485  0.0024  1.0000  -4.9269   0.0000   0.0000   0.0000   0.3070
  12.700   1.8546   0.04105   0.03514  -0.1479  0.0025  1.0000  -4.9804   0.0000   0.0000   0.0000   0.3064
  12.800   1.8553   0.04199   0.03611  -0.1472  0.0027  1.0000  -5.0294   0.0000   0.0000   0.0000   0.3058
  12.900   1.8591   0.04263   0.03676  -0.1467  0.0031  1.0000  -5.0730   0.0000   0.0000   0.0000   0.3052
  13.000   1.8717   0.04242   0.03647  -0.1468  0.0038  1.0000  -5.1293   0.0000   0.0000   0.0000   0.3044
  13.100   1.8838   0.04226   0.03628  -0.1468  0.0043  1.0000  -5.2087   0.0000   0.0000   0.0000   0.3037


