xflr5 v6.59

 Calculated polar for: WORTMANN FX 63-137 AIRFOIL

 1 1 Reynolds number fixed          Mach number fixed         

 xtrf =   1.000 (top)        1.000 (bottom)
 Mach =   0.000     Re =     0.800 e 6     Ncrit =   9.000

  alpha     CL        CD       CDp       Cm    Top Xtr Bot Xtr   Cpmin    Chinge    XCp    
 ------- -------- --------- --------- -------- ------- ------- -------- --------- ---------
   0.000   0.9011   0.00928   0.00200  -0.2028  0.5145  0.0336  -1.1175   0.0000   0.0000   0.0000   0.4731
   0.200   0.9212   0.00949   0.00209  -0.2024  0.4920  0.0348  -1.1363   0.0000   0.0000   0.0000   0.4675
   0.300   0.9315   0.00959   0.00214  -0.2022  0.4826  0.0357  -1.1459   0.0000   0.0000   0.0000   0.4647
   0.400   0.9413   0.00973   0.00221  -0.2020  0.4709  0.0369  -1.1551   0.0000   0.0000   0.0000   0.4621
   0.500   0.9521   0.00979   0.00225  -0.2019  0.4630  0.0380  -1.1650   0.0000   0.0000   0.0000   0.4594
   0.600   0.9624   0.00989   0.00230  -0.2018  0.4480  0.0397  -1.1746   0.0000   0.0000   0.0000   0.4569
   0.700   0.9712   0.01010   0.00240  -0.2014  0.4291  0.0429  -1.1842   0.0000   0.0000   0.0000   0.4544
   0.800   0.9812   0.01022   0.00246  -0.2012  0.4191  0.0475  -1.1954   0.0000   0.0000   0.0000   0.4520
   0.900   0.9917   0.01032   0.00256  -0.2011  0.4110  0.0527  -1.2069   0.0000   0.0000   0.0000   0.4496
   1.000   1.0027   0.01038   0.00262  -0.2011  0.4050  0.0709  -1.2187   0.0000   0.0000   0.0000   0.4472
   1.100   1.0140   0.01041   0.00267  -0.2012  0.4011  0.0789  -1.2308   0.0000   0.0000   0.0000   0.4449
   1.200   1.0259   0.01041   0.00270  -0.2014  0.3983  0.0988  -1.2433   0.0000   0.0000   0.0000   0.4427
   1.300   1.0370   0.01045   0.00274  -0.2014  0.3938  0.1036  -1.2559   0.0000   0.0000   0.0000   0.4404
   1.400   1.0480   0.01051   0.00280  -0.2014  0.3843  0.1183  -1.2702   0.0000   0.0000   0.0000   0.4383
   1.500   1.0581   0.01065   0.00291  -0.2013  0.3701  0.1441  -1.2837   0.0000   0.0000   0.0000   0.4362
   1.600   1.0692   0.01071   0.00298  -0.2014  0.3636  0.1655  -1.2981   0.0000   0.0000   0.0000   0.4342
   1.700   1.0807   0.01075   0.00305  -0.2016  0.3573  0.2013  -1.3127   0.0000   0.0000   0.0000   0.4323
   1.800   1.0950   0.01066   0.00315  -0.2027  0.3502  0.3035  -1.3294   0.0000   0.0000   0.0000   0.4306
   1.900   1.1091   0.01058   0.00329  -0.2036  0.3426  0.4073  -1.3461   0.0000   0.0000   0.0000   0.4290
   2.000   1.1214   0.01057   0.00340  -0.2040  0.3382  0.4599  -1.3616   0.0000   0.0000   0.0000   0.4272
   2.100   1.1331   0.01059   0.00349  -0.2041  0.3356  0.4875  -1.3766   0.0000   0.0000   0.0000   0.4253
   2.200   1.1439   0.01065   0.00355  -0.2041  0.3313  0.4965  -1.3911   0.0000   0.0000   0.0000   0.4234
   2.300   1.1544   0.01073   0.00365  -0.2040  0.3240  0.5037  -1.4053   0.0000   0.0000   0.0000   0.4215
   2.400   1.1627   0.01100   0.00382  -0.2035  0.3050  0.5093  -1.4177   0.0000   0.0000   0.0000   0.4198
   2.500   1.1725   0.01114   0.00392  -0.2033  0.2976  0.5148  -1.4334   0.0000   0.0000   0.0000   0.4180
   2.600   1.1821   0.01129   0.00403  -0.2031  0.2899  0.5198  -1.4498   0.0000   0.0000   0.0000   0.4162
   2.700   1.1918   0.01144   0.00414  -0.2028  0.2821  0.5244  -1.4663   0.0000   0.0000   0.0000   0.4145
   2.800   1.2022   0.01152   0.00422  -0.2027  0.2776  0.5285  -1.4835   0.0000   0.0000   0.0000   0.4127
   2.900   1.2128   0.01159   0.00428  -0.2026  0.2745  0.5318  -1.5014   0.0000   0.0000   0.0000   0.4110
   3.000   1.2231   0.01168   0.00436  -0.2025  0.2680  0.5366  -1.5225   0.0000   0.0000   0.0000   0.4094
   3.100   1.2313   0.01194   0.00454  -0.2020  0.2493  0.5423  -1.5414   0.0000   0.0000   0.0000   0.4078
   3.200   1.2408   0.01210   0.00467  -0.2017  0.2431  0.5482  -1.5617   0.0000   0.0000   0.0000   0.4061
   3.300   1.2502   0.01225   0.00479  -0.2014  0.2371  0.5543  -1.5821   0.0000   0.0000   0.0000   0.4045
   3.400   1.2595   0.01242   0.00491  -0.2011  0.2305  0.5606  -1.6023   0.0000   0.0000   0.0000   0.4030
   3.500   1.2690   0.01256   0.00503  -0.2009  0.2239  0.5661  -1.6228   0.0000   0.0000   0.0000   0.4014
   3.600   1.2796   0.01262   0.00512  -0.2008  0.2210  0.5767  -1.6446   0.0000   0.0000   0.0000   0.3999
   3.700   1.2901   0.01269   0.00522  -0.2007  0.2185  0.5861  -1.6663   0.0000   0.0000   0.0000   0.3984
   3.800   1.3001   0.01279   0.00532  -0.2005  0.2143  0.5938  -1.6895   0.0000   0.0000   0.0000   0.3969
   3.900   1.3086   0.01300   0.00548  -0.2000  0.2005  0.5995  -1.7191   0.0000   0.0000   0.0000   0.3954
   4.000   1.3170   0.01322   0.00569  -0.1996  0.1919  0.6060  -1.7486   0.0000   0.0000   0.0000   0.3940
   4.100   1.3262   0.01338   0.00583  -0.1993  0.1872  0.6139  -1.7795   0.0000   0.0000   0.0000   0.3925
   4.200   1.3351   0.01355   0.00598  -0.1989  0.1823  0.6203  -1.8102   0.0000   0.0000   0.0000   0.3911
   4.300   1.3441   0.01371   0.00610  -0.1985  0.1771  0.6251  -1.8412   0.0000   0.0000   0.0000   0.3897
   4.400   1.3534   0.01385   0.00622  -0.1982  0.1719  0.6283  -1.8727   0.0000   0.0000   0.0000   0.3883
   4.500   1.3634   0.01393   0.00631  -0.1980  0.1696  0.6329  -1.9056   0.0000   0.0000   0.0000   0.3869
   4.600   1.3736   0.01401   0.00641  -0.1979  0.1680  0.6384  -1.9388   0.0000   0.0000   0.0000   0.3856
   4.700   1.3835   0.01410   0.00652  -0.1977  0.1657  0.6432  -1.9718   0.0000   0.0000   0.0000   0.3842
   4.800   1.3928   0.01422   0.00665  -0.1974  0.1604  0.6476  -2.0041   0.0000   0.0000   0.0000   0.3829
   4.900   1.3988   0.01458   0.00691  -0.1965  0.1439  0.6513  -2.0309   0.0000   0.0000   0.0000   0.3815
   5.000   1.4062   0.01484   0.00711  -0.1959  0.1375  0.6548  -2.0600   0.0000   0.0000   0.0000   0.3802
   5.100   1.4134   0.01510   0.00730  -0.1952  0.1291  0.6578  -2.0890   0.0000   0.0000   0.0000   0.3789
   5.200   1.4221   0.01525   0.00744  -0.1948  0.1232  0.6603  -2.1206   0.0000   0.0000   0.0000   0.3776
   5.300   1.4311   0.01539   0.00758  -0.1945  0.1190  0.6643  -2.1530   0.0000   0.0000   0.0000   0.3763
   5.400   1.4363   0.01577   0.00790  -0.1935  0.1021  0.6681  -2.1790   0.0000   0.0000   0.0000   0.3750
   5.500   1.4427   0.01606   0.00812  -0.1927  0.0968  0.6718  -2.2072   0.0000   0.0000   0.0000   0.3737
   5.600   1.4495   0.01631   0.00833  -0.1920  0.0907  0.6755  -2.2360   0.0000   0.0000   0.0000   0.3724
   5.700   1.4570   0.01649   0.00851  -0.1913  0.0854  0.6793  -2.2660   0.0000   0.0000   0.0000   0.3712
   5.800   1.4651   0.01661   0.00865  -0.1908  0.0837  0.6831  -2.2976   0.0000   0.0000   0.0000   0.3699
   5.900   1.4731   0.01674   0.00878  -0.1902  0.0825  0.6866  -2.3290   0.0000   0.0000   0.0000   0.3687
   6.000   1.4810   0.01687   0.00892  -0.1897  0.0813  0.6899  -2.3604   0.0000   0.0000   0.0000   0.3674
   6.100   1.4890   0.01700   0.00906  -0.1891  0.0796  0.6939  -2.3920   0.0000   0.0000   0.0000   0.3662
   6.200   1.4967   0.01715   0.00923  -0.1886  0.0764  0.6989  -2.4233   0.0000   0.0000   0.0000   0.3650
   6.300   1.4999   0.01755   0.00959  -0.1872  0.0651  0.7035  -2.4477   0.0000   0.0000   0.0000   0.3637
   6.400   1.5060   0.01779   0.00981  -0.1864  0.0631  0.7083  -2.4764   0.0000   0.0000   0.0000   0.3625
   6.500   1.5121   0.01803   0.01004  -0.1855  0.0610  0.7130  -2.5052   0.0000   0.0000   0.0000   0.3613
   6.600   1.5185   0.01825   0.01025  -0.1847  0.0586  0.7176  -2.5344   0.0000   0.0000   0.0000   0.3601
   6.800   1.5325   0.01864   0.01066  -0.1834  0.0545  0.7284  -2.5948   0.0000   0.0000   0.0000   0.3578
   6.900   1.5396   0.01882   0.01086  -0.1827  0.0530  0.7347  -2.6251   0.0000   0.0000   0.0000   0.3566
   7.000   1.5467   0.01901   0.01106  -0.1821  0.0517  0.7413  -2.6556   0.0000   0.0000   0.0000   0.3555
   7.100   1.5541   0.01918   0.01126  -0.1815  0.0515  0.7476  -2.6896   0.0000   0.0000   0.0000   0.3544
   7.200   1.5615   0.01935   0.01146  -0.1809  0.0511  0.7543  -2.7235   0.0000   0.0000   0.0000   0.3533
   7.300   1.5688   0.01953   0.01168  -0.1803  0.0507  0.7619  -2.7573   0.0000   0.0000   0.0000   0.3522
   7.400   1.5759   0.01972   0.01190  -0.1797  0.0502  0.7697  -2.7905   0.0000   0.0000   0.0000   0.3511
   7.500   1.5827   0.01992   0.01212  -0.1791  0.0496  0.7773  -2.8233   0.0000   0.0000   0.0000   0.3500
   7.600   1.5896   0.02012   0.01236  -0.1784  0.0489  0.7859  -2.8561   0.0000   0.0000   0.0000   0.3490
   7.700   1.5963   0.02034   0.01260  -0.1778  0.0482  0.7953  -2.8888   0.0000   0.0000   0.0000   0.3479
   7.800   1.6028   0.02057   0.01285  -0.1771  0.0473  0.8044  -2.9213   0.0000   0.0000   0.0000   0.3469
   7.900   1.6090   0.02080   0.01312  -0.1764  0.0462  0.8147  -2.9534   0.0000   0.0000   0.0000   0.3458
   8.000   1.6148   0.02106   0.01341  -0.1756  0.0451  0.8262  -2.9851   0.0000   0.0000   0.0000   0.3448
   8.100   1.6203   0.02133   0.01371  -0.1747  0.0439  0.8393  -3.0164   0.0000   0.0000   0.0000   0.3437
   8.300   1.6294   0.02189   0.01435  -0.1728  0.0412  0.8822  -3.0757   0.0000   0.0000   0.0000   0.3416
   8.400   1.6276   0.02202   0.01457  -0.1705  0.0402  1.0000  -3.0926   0.0000   0.0000   0.0000   0.3401
   8.500   1.6331   0.02235   0.01490  -0.1697  0.0387  1.0000  -3.1234   0.0000   0.0000   0.0000   0.3391
   8.600   1.6391   0.02265   0.01520  -0.1691  0.0380  1.0000  -3.1566   0.0000   0.0000   0.0000   0.3382
   8.700   1.6453   0.02294   0.01549  -0.1685  0.0375  1.0000  -3.1910   0.0000   0.0000   0.0000   0.3372
   8.800   1.6513   0.02324   0.01579  -0.1678  0.0368  1.0000  -3.2254   0.0000   0.0000   0.0000   0.3363
   8.900   1.6581   0.02350   0.01612  -0.1673  0.0378  1.0000  -3.2535   0.0000   0.0000   0.0000   0.3353
   9.000   1.6641   0.02381   0.01644  -0.1667  0.0374  1.0000  -3.2871   0.0000   0.0000   0.0000   0.3344
   9.100   1.6698   0.02414   0.01677  -0.1660  0.0368  1.0000  -3.3211   0.0000   0.0000   0.0000   0.3335
   9.200   1.6753   0.02449   0.01712  -0.1654  0.0358  1.0000  -3.3555   0.0000   0.0000   0.0000   0.3326
   9.300   1.6803   0.02488   0.01750  -0.1646  0.0339  1.0000  -3.3906   0.0000   0.0000   0.0000   0.3317
   9.400   1.6803   0.02563   0.01819  -0.1633  0.0271  1.0000  -3.4265   0.0000   0.0000   0.0000   0.3307
   9.500   1.6800   0.02642   0.01892  -0.1621  0.0226  1.0000  -3.4455   0.0000   0.0000   0.0000   0.3298
   9.600   1.6806   0.02714   0.01960  -0.1609  0.0177  1.0000  -3.4419   0.0000   0.0000   0.0000   0.3289
   9.700   1.6846   0.02762   0.02009  -0.1601  0.0158  1.0000  -3.4665   0.0000   0.0000   0.0000   0.3280
   9.900   1.6787   0.02974   0.02220  -0.1572  0.0042  1.0000  -3.5030   0.0000   0.0000   0.0000   0.3262
  10.000   1.6814   0.03037   0.02285  -0.1563  0.0039  1.0000  -3.5308   0.0000   0.0000   0.0000   0.3254
  10.100   1.6855   0.03091   0.02339  -0.1557  0.0034  1.0000  -3.5731   0.0000   0.0000   0.0000   0.3245
  10.200   1.6899   0.03142   0.02392  -0.1551  0.0030  1.0000  -3.6034   0.0000   0.0000   0.0000   0.3237
  10.300   1.6937   0.03199   0.02451  -0.1544  0.0028  1.0000  -3.6323   0.0000   0.0000   0.0000   0.3229
  10.400   1.6975   0.03256   0.02511  -0.1538  0.0026  1.0000  -3.6633   0.0000   0.0000   0.0000   0.3222
  10.500   1.7015   0.03313   0.02570  -0.1532  0.0025  1.0000  -3.6962   0.0000   0.0000   0.0000   0.3214
  10.600   1.7056   0.03369   0.02629  -0.1526  0.0025  1.0000  -3.7305   0.0000   0.0000   0.0000   0.3206
  10.700   1.7094   0.03429   0.02691  -0.1520  0.0024  1.0000  -3.7646   0.0000   0.0000   0.0000   0.3199
  10.800   1.7130   0.03491   0.02755  -0.1514  0.0024  1.0000  -3.7986   0.0000   0.0000   0.0000   0.3191
  10.900   1.7166   0.03552   0.02819  -0.1508  0.0023  1.0000  -3.8332   0.0000   0.0000   0.0000   0.3184
  11.000   1.7204   0.03613   0.02883  -0.1502  0.0023  1.0000  -3.8683   0.0000   0.0000   0.0000   0.3177
  11.100   1.7242   0.03674   0.02947  -0.1497  0.0023  1.0000  -3.9036   0.0000   0.0000   0.0000   0.3170
  11.200   1.7275   0.03741   0.03016  -0.1491  0.0023  1.0000  -3.9377   0.0000   0.0000   0.0000   0.3163
  11.300   1.7306   0.03809   0.03088  -0.1486  0.0023  1.0000  -3.9714   0.0000   0.0000   0.0000   0.3156
  11.400   1.7338   0.03877   0.03159  -0.1480  0.0022  1.0000  -4.0056   0.0000   0.0000   0.0000   0.3149
  11.500   1.7372   0.03944   0.03228  -0.1475  0.0022  1.0000  -4.0403   0.0000   0.0000   0.0000   0.3142
  11.600   1.7406   0.04011   0.03301  -0.1470  0.0022  1.0000  -4.0745   0.0000   0.0000   0.0000   0.3135
  11.700   1.7436   0.04082   0.03375  -0.1464  0.0022  1.0000  -4.1082   0.0000   0.0000   0.0000   0.3129
  11.800   1.7461   0.04160   0.03456  -0.1459  0.0022  1.0000  -4.1405   0.0000   0.0000   0.0000   0.3122
  11.900   1.7486   0.04238   0.03537  -0.1454  0.0022  1.0000  -4.1727   0.0000   0.0000   0.0000   0.3116
  12.000   1.7510   0.04314   0.03617  -0.1448  0.0022  1.0000  -4.2052   0.0000   0.0000   0.0000   0.3109
  12.100   1.7536   0.04390   0.03697  -0.1443  0.0022  1.0000  -4.2379   0.0000   0.0000   0.0000   0.3103
  12.200   1.7560   0.04469   0.03779  -0.1438  0.0022  1.0000  -4.2761   0.0000   0.0000   0.0000   0.3097
  12.300   1.7576   0.04558   0.03872  -0.1433  0.0022  1.0000  -4.3334   0.0000   0.0000   0.0000   0.3091
  12.400   1.7592   0.04649   0.03966  -0.1428  0.0023  1.0000  -4.3908   0.0000   0.0000   0.0000   0.3085
  12.500   1.7611   0.04737   0.04058  -0.1423  0.0023  1.0000  -4.4501   0.0000   0.0000   0.0000   0.3079
  12.600   1.7632   0.04824   0.04148  -0.1418  0.0023  1.0000  -4.5105   0.0000   0.0000   0.0000   0.3073
  12.700   1.7653   0.04912   0.04239  -0.1414  0.0023  1.0000  -4.5713   0.0000   0.0000   0.0000   0.3068
  12.800   1.7673   0.05002   0.04333  -0.1409  0.0023  1.0000  -4.6316   0.0000   0.0000   0.0000   0.3062
  12.900   1.7683   0.05105   0.04440  -0.1405  0.0023  1.0000  -4.6873   0.0000   0.0000   0.0000   0.3057
  13.000   1.7693   0.05210   0.04550  -0.1401  0.0023  1.0000  -4.7427   0.0000   0.0000   0.0000   0.3052
  13.100   1.7706   0.05312   0.04655  -0.1397  0.0023  1.0000  -4.8001   0.0000   0.0000   0.0000   0.3047
  13.200   1.7720   0.05412   0.04759  -0.1393  0.0023  1.0000  -4.8585   0.0000   0.0000   0.0000   0.3042
  13.300   1.7735   0.05513   0.04863  -0.1389  0.0024  1.0000  -4.9170   0.0000   0.0000   0.0000   0.3036
  13.400   1.7743   0.05623   0.04978  -0.1386  0.0024  1.0000  -4.9721   0.0000   0.0000   0.0000   0.3032
  13.500   1.7744   0.05744   0.05103  -0.1382  0.0024  1.0000  -5.0235   0.0000   0.0000   0.0000   0.3027
  13.600   1.7749   0.05860   0.05223  -0.1379  0.0024  1.0000  -5.0773   0.0000   0.0000   0.0000   0.3023
  13.700   1.7758   0.05971   0.05338  -0.1376  0.0024  1.0000  -5.1330   0.0000   0.0000   0.0000   0.3019
  13.800   1.7767   0.06082   0.05453  -0.1373  0.0025  1.0000  -5.1891   0.0000   0.0000   0.0000   0.3014
  13.900   1.7776   0.06194   0.05568  -0.1370  0.0025  1.0000  -5.2449   0.0000   0.0000   0.0000   0.3010
  14.000   1.7780   0.06313   0.05692  -0.1367  0.0025  1.0000  -5.2982   0.0000   0.0000   0.0000   0.3005
  14.100   1.7773   0.06450   0.05834  -0.1365  0.0025  1.0000  -5.3452   0.0000   0.0000   0.0000   0.3002
  14.200   1.7770   0.06583   0.05970  -0.1362  0.0025  1.0000  -5.3937   0.0000   0.0000   0.0000   0.2999
  14.300   1.7770   0.06710   0.06102  -0.1360  0.0026  1.0000  -5.4443   0.0000   0.0000   0.0000   0.2995
  14.400   1.7772   0.06836   0.06231  -0.1358  0.0026  1.0000  -5.4954   0.0000   0.0000   0.0000   0.2991
  14.500   1.7772   0.06963   0.06362  -0.1356  0.0026  1.0000  -5.5456   0.0000   0.0000   0.0000   0.2988
  14.600   1.7759   0.07112   0.06516  -0.1355  0.0027  1.0000  -5.5880   0.0000   0.0000   0.0000   0.2985
  14.700   1.7747   0.07262   0.06670  -0.1354  0.0027  1.0000  -5.6303   0.0000   0.0000   0.0000   0.2983
  14.800   1.7742   0.07400   0.06812  -0.1352  0.0027  1.0000  -5.6761   0.0000   0.0000   0.0000   0.2980
  14.900   1.7740   0.07533   0.06950  -0.1351  0.0027  1.0000  -5.7231   0.0000   0.0000   0.0000   0.2977
  15.000   1.7739   0.07666   0.07086  -0.1350  0.0028  1.0000  -5.7700   0.0000   0.0000   0.0000   0.2973
  15.100   1.7737   0.07799   0.07225  -0.1349  0.0028  1.0000  -5.8177   0.0000   0.0000   0.0000   0.2970
  15.200   1.7720   0.07954   0.07384  -0.1349  0.0029  1.0000  -5.8560   0.0000   0.0000   0.0000   0.2969
  15.300   1.7699   0.08116   0.07550  -0.1349  0.0029  1.0000  -5.8908   0.0000   0.0000   0.0000   0.2967
  15.400   1.7688   0.08264   0.07703  -0.1349  0.0029  1.0000  -5.9301   0.0000   0.0000   0.0000   0.2965
  15.500   1.7680   0.08409   0.07851  -0.1348  0.0030  1.0000  -5.9711   0.0000   0.0000   0.0000   0.2963
  15.600   1.7673   0.08553   0.07999  -0.1348  0.0030  1.0000  -6.0119   0.0000   0.0000   0.0000   0.2960
  15.700   1.7657   0.08714   0.08164  -0.1349  0.0031  1.0000  -6.0473   0.0000   0.0000   0.0000   0.2959
  15.800   1.7630   0.08894   0.08349  -0.1351  0.0031  1.0000  -6.0770   0.0000   0.0000   0.0000   0.2958
  15.900   1.7617   0.09055   0.08514  -0.1352  0.0031  1.0000  -6.1131   0.0000   0.0000   0.0000   0.2957
  16.000   1.7607   0.09209   0.08671  -0.1353  0.0032  1.0000  -6.1515   0.0000   0.0000   0.0000   0.2956
  16.100   1.7599   0.09361   0.08828  -0.1354  0.0032  1.0000  -6.1902   0.0000   0.0000   0.0000   0.2954
  16.200   1.7589   0.09516   0.08986  -0.1355  0.0033  1.0000  -6.2280   0.0000   0.0000   0.0000   0.2953
  16.300   1.7571   0.09688   0.09163  -0.1358  0.0033  1.0000  -6.2606   0.0000   0.0000   0.0000   0.2952
  16.400   1.7541   0.09883   0.09363  -0.1361  0.0034  1.0000  -6.2863   0.0000   0.0000   0.0000   0.2953
  16.500   1.7521   0.10060   0.09544  -0.1364  0.0034  1.0000  -6.3175   0.0000   0.0000   0.0000   0.2953
  16.600   1.7505   0.10228   0.09717  -0.1366  0.0035  1.0000  -6.3510   0.0000   0.0000   0.0000   0.2952
  16.700   1.7490   0.10395   0.09888  -0.1369  0.0035  1.0000  -6.3845   0.0000   0.0000   0.0000   0.2952
  16.800   1.7471   0.10573   0.10072  -0.1373  0.0036  1.0000  -6.4148   0.0000   0.0000   0.0000   0.2952
  16.900   1.7436   0.10779   0.10283  -0.1378  0.0036  1.0000  -6.4363   0.0000   0.0000   0.0000   0.2954
  17.000   1.7416   0.10960   0.10470  -0.1382  0.0037  1.0000  -6.4650   0.0000   0.0000   0.0000   0.2954
  17.100   1.7400   0.11130   0.10645  -0.1385  0.0038  1.0000  -6.4965   0.0000   0.0000   0.0000   0.2955
  17.200   1.7387   0.11297   0.10817  -0.1389  0.0038  1.0000  -6.5288   0.0000   0.0000   0.0000   0.2955
  17.300   1.7373   0.11466   0.10991  -0.1393  0.0039  1.0000  -6.5600   0.0000   0.0000   0.0000   0.2955
  17.400   1.7350   0.11651   0.11182  -0.1398  0.0039  1.0000  -6.5853   0.0000   0.0000   0.0000   0.2956
  17.500   1.7308   0.11873   0.11410  -0.1405  0.0040  1.0000  -6.5987   0.0000   0.0000   0.0000   0.2959
  17.600   1.7278   0.12071   0.11614  -0.1411  0.0040  1.0000  -6.6185   0.0000   0.0000   0.0000   0.2962
  17.700   1.7254   0.12259   0.11808  -0.1416  0.0041  1.0000  -6.6407   0.0000   0.0000   0.0000   0.2963
  17.800   1.7230   0.12448   0.12003  -0.1422  0.0042  1.0000  -6.6613   0.0000   0.0000   0.0000   0.2965
  17.900   1.7189   0.12668   0.12229  -0.1430  0.0042  1.0000  -6.6713   0.0000   0.0000   0.0000   0.2969
  18.000   1.7141   0.12901   0.12469  -0.1438  0.0042  1.0000  -6.6761   0.0000   0.0000   0.0000   0.2974
  18.100   1.7107   0.13109   0.12684  -0.1446  0.0043  1.0000  -6.6860   0.0000   0.0000   0.0000   0.2977
  18.200   1.7071   0.13317   0.12899  -0.1453  0.0044  1.0000  -6.6924   0.0000   0.0000   0.0000   0.2980
  18.300   1.7027   0.13541   0.13130  -0.1462  0.0044  1.0000  -6.6883   0.0000   0.0000   0.0000   0.2985
  18.400   1.6953   0.13821   0.13420  -0.1473  0.0045  1.0000  -6.6556   0.0000   0.0000   0.0000   0.2993
  18.500   1.6856   0.14150   0.13760  -0.1488  0.0047  1.0000  -6.5913   0.0000   0.0000   0.0000   0.3004
  18.600   1.6844   0.14319   0.13932  -0.1495  0.0048  1.0000  -6.6283   0.0000   0.0000   0.0000   0.3006
  18.700   1.6834   0.14485   0.14102  -0.1502  0.0048  1.0000  -6.6658   0.0000   0.0000   0.0000   0.3008
  18.800   1.6823   0.14654   0.14274  -0.1509  0.0049  1.0000  -6.7019   0.0000   0.0000   0.0000   0.3010
  18.900   1.6796   0.14852   0.14476  -0.1519  0.0050  1.0000  -6.7249   0.0000   0.0000   0.0000   0.3015
  19.000   1.6763   0.15055   0.14684  -0.1530  0.0050  1.0000  -6.7427   0.0000   0.0000   0.0000   0.3020
  19.100   1.6749   0.15220   0.14852  -0.1539  0.0051  1.0000  -6.7737   0.0000   0.0000   0.0000   0.3024
  19.200   1.6739   0.15374   0.15009  -0.1547  0.0052  1.0000  -6.8081   0.0000   0.0000   0.0000   0.3026
  19.300   1.6729   0.15527   0.15165  -0.1555  0.0053  1.0000  -6.8424   0.0000   0.0000   0.0000   0.3029
  19.400   1.6718   0.15684   0.15326  -0.1564  0.0054  1.0000  -6.8750   0.0000   0.0000   0.0000   0.3032
  19.500   1.6703   0.15848   0.15494  -0.1573  0.0055  1.0000  -6.9045   0.0000   0.0000   0.0000   0.3036
  19.600   1.6678   0.16038   0.15688  -0.1583  0.0056  1.0000  -6.9245   0.0000   0.0000   0.0000   0.3041
  19.700   1.6638   0.16264   0.15919  -0.1597  0.0056  1.0000  -6.9311   0.0000   0.0000   0.0000   0.3048
  19.800   1.6613   0.16462   0.16121  -0.1608  0.0057  1.0000  -6.9487   0.0000   0.0000   0.0000   0.3054
  19.900   1.6590   0.16652   0.16315  -0.1619  0.0058  1.0000  -6.9688   0.0000   0.0000   0.0000   0.3059
  20.000   1.6568   0.16844   0.16512  -0.1629  0.0060  1.0000  -6.9878   0.0000   0.0000   0.0000   0.3064


