xflr5 v6.59

 Calculated polar for: WORTMANN FX 63-137 AIRFOIL

 1 1 Reynolds number fixed          Mach number fixed         

 xtrf =   1.000 (top)        1.000 (bottom)
 Mach =   0.000     Re =     4.100 e 6     Ncrit =   9.000

  alpha     CL        CD       CDp       Cm    Top Xtr Bot Xtr   Cpmin    Chinge    XCp    
 ------- -------- --------- --------- -------- ------- ------- -------- --------- ---------
   0.000   0.9069   0.00956   0.00253  -0.2057  0.1234  0.0186  -1.1366   0.0000   0.0000   0.0000   0.4750
   0.100   0.9183   0.00958   0.00255  -0.2057  0.1231  0.0186  -1.1470   0.0000   0.0000   0.0000   0.4720
   0.200   0.9297   0.00961   0.00258  -0.2058  0.1228  0.0184  -1.1575   0.0000   0.0000   0.0000   0.4692
   0.300   0.9411   0.00964   0.00260  -0.2058  0.1224  0.0182  -1.1679   0.0000   0.0000   0.0000   0.4664
   0.400   0.9524   0.00966   0.00263  -0.2058  0.1220  0.0180  -1.1783   0.0000   0.0000   0.0000   0.4637
   0.500   0.9637   0.00969   0.00266  -0.2059  0.1214  0.0178  -1.1887   0.0000   0.0000   0.0000   0.4610
   0.600   0.9750   0.00972   0.00269  -0.2059  0.1207  0.0177  -1.1991   0.0000   0.0000   0.0000   0.4585
   0.700   0.9862   0.00976   0.00273  -0.2059  0.1197  0.0176  -1.2112   0.0000   0.0000   0.0000   0.4559
   0.800   0.9966   0.00987   0.00281  -0.2058  0.1101  0.0175  -1.2232   0.0000   0.0000   0.0000   0.4535
   0.900   1.0070   0.00997   0.00288  -0.2056  0.1030  0.0176  -1.2352   0.0000   0.0000   0.0000   0.4510
   1.000   1.0181   0.01001   0.00292  -0.2056  0.1020  0.0176  -1.2476   0.0000   0.0000   0.0000   0.4487
   1.100   1.0292   0.01006   0.00297  -0.2056  0.1009  0.0179  -1.2599   0.0000   0.0000   0.0000   0.4463
   1.200   1.0402   0.01011   0.00301  -0.2056  0.0998  0.0215  -1.2721   0.0000   0.0000   0.0000   0.4441
   1.300   1.0510   0.01017   0.00305  -0.2055  0.0988  0.0248  -1.2855   0.0000   0.0000   0.0000   0.4418
   1.400   1.0621   0.01021   0.00311  -0.2055  0.0976  0.0263  -1.3006   0.0000   0.0000   0.0000   0.4396
   1.500   1.0734   0.01025   0.00315  -0.2056  0.0965  0.0344  -1.3158   0.0000   0.0000   0.0000   0.4375
   1.600   1.0845   0.01029   0.00319  -0.2056  0.0953  0.0358  -1.3307   0.0000   0.0000   0.0000   0.4354
   1.700   1.0955   0.01034   0.00323  -0.2055  0.0941  0.0366  -1.3458   0.0000   0.0000   0.0000   0.4333
   1.800   1.1066   0.01038   0.00327  -0.2055  0.0927  0.0371  -1.3608   0.0000   0.0000   0.0000   0.4313
   1.900   1.1176   0.01042   0.00331  -0.2055  0.0913  0.0376  -1.3759   0.0000   0.0000   0.0000   0.4293
   2.000   1.1286   0.01047   0.00335  -0.2055  0.0898  0.0380  -1.3910   0.0000   0.0000   0.0000   0.4274
   2.100   1.1397   0.01051   0.00339  -0.2055  0.0884  0.0383  -1.4061   0.0000   0.0000   0.0000   0.4255
   2.200   1.1507   0.01055   0.00343  -0.2055  0.0872  0.0399  -1.4212   0.0000   0.0000   0.0000   0.4236
   2.300   1.1618   0.01059   0.00348  -0.2055  0.0862  0.0467  -1.4364   0.0000   0.0000   0.0000   0.4217
   2.400   1.1726   0.01064   0.00354  -0.2054  0.0841  0.0488  -1.4514   0.0000   0.0000   0.0000   0.4199
   2.500   1.1834   0.01070   0.00360  -0.2054  0.0826  0.0510  -1.4664   0.0000   0.0000   0.0000   0.4181
   2.700   1.2027   0.01103   0.00386  -0.2049  0.0627  0.0669  -1.5067   0.0000   0.0000   0.0000   0.4147
   2.800   1.2131   0.01112   0.00393  -0.2047  0.0597  0.0764  -1.5255   0.0000   0.0000   0.0000   0.4130
   2.900   1.2239   0.01117   0.00399  -0.2047  0.0570  0.0818  -1.5440   0.0000   0.0000   0.0000   0.4113
   3.000   1.2348   0.01123   0.00405  -0.2047  0.0544  0.0888  -1.5627   0.0000   0.0000   0.0000   0.4097
   3.100   1.2459   0.01127   0.00410  -0.2047  0.0525  0.1008  -1.5837   0.0000   0.0000   0.0000   0.4080
   3.200   1.2566   0.01133   0.00416  -0.2046  0.0516  0.1026  -1.6064   0.0000   0.0000   0.0000   0.4065
   3.300   1.2673   0.01138   0.00421  -0.2046  0.0513  0.1044  -1.6294   0.0000   0.0000   0.0000   0.4049
   3.400   1.2781   0.01144   0.00427  -0.2045  0.0510  0.1111  -1.6527   0.0000   0.0000   0.0000   0.4033
   3.500   1.2889   0.01149   0.00433  -0.2045  0.0505  0.1173  -1.6761   0.0000   0.0000   0.0000   0.4018
   3.600   1.2996   0.01155   0.00440  -0.2044  0.0500  0.1231  -1.6998   0.0000   0.0000   0.0000   0.4003
   3.700   1.3108   0.01159   0.00446  -0.2045  0.0494  0.1438  -1.7241   0.0000   0.0000   0.0000   0.3989
   3.800   1.3213   0.01166   0.00453  -0.2044  0.0485  0.1451  -1.7481   0.0000   0.0000   0.0000   0.3974
   3.900   1.3323   0.01168   0.00457  -0.2044  0.0506  0.1449  -1.7719   0.0000   0.0000   0.0000   0.3960
   4.000   1.3429   0.01174   0.00463  -0.2043  0.0504  0.1497  -1.8057   0.0000   0.0000   0.0000   0.3946
   4.100   1.3537   0.01179   0.00470  -0.2043  0.0501  0.1616  -1.8401   0.0000   0.0000   0.0000   0.3932
   4.200   1.3648   0.01184   0.00478  -0.2043  0.0494  0.1820  -1.8752   0.0000   0.0000   0.0000   0.3918
   4.300   1.3753   0.01191   0.00486  -0.2043  0.0479  0.1945  -1.9099   0.0000   0.0000   0.0000   0.3905
   4.400   1.3854   0.01201   0.00496  -0.2041  0.0457  0.2048  -1.9441   0.0000   0.0000   0.0000   0.3891
   4.500   1.3957   0.01211   0.00507  -0.2040  0.0430  0.2206  -1.9786   0.0000   0.0000   0.0000   0.3878
   4.600   1.4066   0.01218   0.00516  -0.2040  0.0403  0.2481  -2.0139   0.0000   0.0000   0.0000   0.3866
   4.700   1.4171   0.01225   0.00525  -0.2040  0.0384  0.2625  -2.0489   0.0000   0.0000   0.0000   0.3853
   4.800   1.4290   0.01226   0.00533  -0.2042  0.0381  0.3040  -2.0864   0.0000   0.0000   0.0000   0.3841
   4.900   1.4393   0.01233   0.00541  -0.2041  0.0379  0.3097  -2.1220   0.0000   0.0000   0.0000   0.3829
   5.000   1.4504   0.01238   0.00549  -0.2042  0.0377  0.3335  -2.1588   0.0000   0.0000   0.0000   0.3817
   5.100   1.4617   0.01241   0.00558  -0.2043  0.0374  0.3667  -2.1964   0.0000   0.0000   0.0000   0.3806
   5.200   1.4721   0.01248   0.00566  -0.2042  0.0371  0.3780  -2.2327   0.0000   0.0000   0.0000   0.3793
   5.300   1.4837   0.01251   0.00577  -0.2045  0.0368  0.4187  -2.2713   0.0000   0.0000   0.0000   0.3782
   5.400   1.4951   0.01256   0.00587  -0.2046  0.0363  0.4581  -2.3098   0.0000   0.0000   0.0000   0.3772
   5.500   1.5058   0.01262   0.00599  -0.2046  0.0354  0.4872  -2.3480   0.0000   0.0000   0.0000   0.3760
   5.600   1.5134   0.01289   0.00620  -0.2040  0.0276  0.4932  -2.3853   0.0000   0.0000   0.0000   0.3748
   5.700   1.5222   0.01306   0.00634  -0.2036  0.0236  0.4961  -2.4151   0.0000   0.0000   0.0000   0.3736
   5.800   1.5308   0.01324   0.00650  -0.2032  0.0204  0.4980  -2.4394   0.0000   0.0000   0.0000   0.3724
   6.000   1.5446   0.01384   0.00706  -0.2016  0.0042  0.5059  -2.5068   0.0000   0.0000   0.0000   0.3699
   6.100   1.5539   0.01396   0.00719  -0.2013  0.0039  0.5114  -2.5435   0.0000   0.0000   0.0000   0.3687
   6.200   1.5633   0.01407   0.00731  -0.2010  0.0037  0.5161  -2.5795   0.0000   0.0000   0.0000   0.3676
   6.300   1.5726   0.01418   0.00743  -0.2007  0.0035  0.5203  -2.6156   0.0000   0.0000   0.0000   0.3665
   6.400   1.5819   0.01430   0.00754  -0.2004  0.0033  0.5240  -2.6517   0.0000   0.0000   0.0000   0.3654
   6.500   1.5911   0.01441   0.00766  -0.2001  0.0032  0.5271  -2.6878   0.0000   0.0000   0.0000   0.3643
   6.600   1.6002   0.01452   0.00777  -0.1998  0.0030  0.5307  -2.7238   0.0000   0.0000   0.0000   0.3632
   6.700   1.6093   0.01464   0.00789  -0.1994  0.0028  0.5359  -2.7598   0.0000   0.0000   0.0000   0.3621
   6.800   1.6186   0.01475   0.00802  -0.1992  0.0026  0.5482  -2.7963   0.0000   0.0000   0.0000   0.3611
   6.900   1.6278   0.01486   0.00814  -0.1989  0.0025  0.5563  -2.8327   0.0000   0.0000   0.0000   0.3600
   7.000   1.6366   0.01498   0.00827  -0.1985  0.0023  0.5602  -2.8687   0.0000   0.0000   0.0000   0.3589
   7.100   1.6453   0.01510   0.00839  -0.1980  0.0021  0.5619  -2.9046   0.0000   0.0000   0.0000   0.3579
   7.200   1.6538   0.01523   0.00852  -0.1976  0.0020  0.5633  -2.9405   0.0000   0.0000   0.0000   0.3568
   7.300   1.6621   0.01535   0.00864  -0.1971  0.0019  0.5646  -2.9760   0.0000   0.0000   0.0000   0.3558
   7.400   1.6696   0.01548   0.00877  -0.1965  0.0017  0.5663  -3.0102   0.0000   0.0000   0.0000   0.3547
   7.500   1.6766   0.01560   0.00890  -0.1957  0.0016  0.5724  -3.0435   0.0000   0.0000   0.0000   0.3536
   7.600   1.6839   0.01573   0.00904  -0.1950  0.0015  0.5793  -3.0776   0.0000   0.0000   0.0000   0.3525
   7.700   1.6912   0.01586   0.00918  -0.1943  0.0014  0.5859  -3.1119   0.0000   0.0000   0.0000   0.3514
   7.800   1.6984   0.01600   0.00933  -0.1937  0.0014  0.5920  -3.1461   0.0000   0.0000   0.0000   0.3503
   7.900   1.7055   0.01614   0.00948  -0.1929  0.0013  0.5967  -3.1801   0.0000   0.0000   0.0000   0.3493
   8.000   1.7128   0.01628   0.00964  -0.1923  0.0013  0.6075  -3.2148   0.0000   0.0000   0.0000   0.3482
   8.100   1.7203   0.01643   0.00981  -0.1917  0.0013  0.6177  -3.2498   0.0000   0.0000   0.0000   0.3472
   8.200   1.7273   0.01658   0.00998  -0.1910  0.0013  0.6210  -3.2843   0.0000   0.0000   0.0000   0.3462
   8.300   1.7342   0.01674   0.01015  -0.1903  0.0013  0.6270  -3.3185   0.0000   0.0000   0.0000   0.3452
   8.400   1.7410   0.01691   0.01032  -0.1895  0.0013  0.6315  -3.3525   0.0000   0.0000   0.0000   0.3441
   8.500   1.7481   0.01707   0.01051  -0.1889  0.0013  0.6428  -3.3874   0.0000   0.0000   0.0000   0.3431
   8.600   1.7551   0.01724   0.01070  -0.1882  0.0013  0.6512  -3.4222   0.0000   0.0000   0.0000   0.3421
   8.700   1.7618   0.01742   0.01089  -0.1875  0.0013  0.6576  -3.4565   0.0000   0.0000   0.0000   0.3411
   8.800   1.7685   0.01760   0.01108  -0.1867  0.0013  0.6643  -3.4907   0.0000   0.0000   0.0000   0.3402
   8.900   1.7754   0.01778   0.01129  -0.1861  0.0013  0.6747  -3.5257   0.0000   0.0000   0.0000   0.3392
   9.000   1.7822   0.01797   0.01149  -0.1854  0.0013  0.6813  -3.5604   0.0000   0.0000   0.0000   0.3382
   9.100   1.7887   0.01817   0.01170  -0.1847  0.0013  0.6859  -3.5948   0.0000   0.0000   0.0000   0.3373
   9.200   1.7950   0.01838   0.01192  -0.1839  0.0013  0.6890  -3.6286   0.0000   0.0000   0.0000   0.3363
   9.300   1.8011   0.01860   0.01215  -0.1831  0.0013  0.6911  -3.6715   0.0000   0.0000   0.0000   0.3353
   9.400   1.8073   0.01882   0.01238  -0.1824  0.0013  0.6967  -3.7165   0.0000   0.0000   0.0000   0.3344
   9.500   1.8135   0.01905   0.01262  -0.1816  0.0013  0.7029  -3.7616   0.0000   0.0000   0.0000   0.3334
   9.600   1.8193   0.01929   0.01288  -0.1808  0.0012  0.7083  -3.8059   0.0000   0.0000   0.0000   0.3325
   9.700   1.8250   0.01954   0.01315  -0.1800  0.0012  0.7131  -3.8499   0.0000   0.0000   0.0000   0.3315
   9.800   1.8307   0.01980   0.01342  -0.1792  0.0012  0.7176  -3.8942   0.0000   0.0000   0.0000   0.3306
   9.900   1.8366   0.02006   0.01370  -0.1784  0.0012  0.7222  -3.9388   0.0000   0.0000   0.0000   0.3297
  10.000   1.8423   0.02033   0.01400  -0.1777  0.0012  0.7320  -3.9832   0.0000   0.0000   0.0000   0.3288
  10.100   1.8478   0.02062   0.01431  -0.1769  0.0012  0.7405  -4.0269   0.0000   0.0000   0.0000   0.3279
  10.200   1.8533   0.02092   0.01463  -0.1761  0.0012  0.7472  -4.0705   0.0000   0.0000   0.0000   0.3270
  10.300   1.8589   0.02121   0.01495  -0.1754  0.0012  0.7544  -4.1145   0.0000   0.0000   0.0000   0.3261
  10.400   1.8644   0.02153   0.01529  -0.1746  0.0012  0.7648  -4.1582   0.0000   0.0000   0.0000   0.3252
  10.500   1.8694   0.02187   0.01567  -0.1738  0.0012  0.7736  -4.1996   0.0000   0.0000   0.0000   0.3243
  10.600   1.8747   0.02220   0.01604  -0.1731  0.0012  0.7839  -4.2721   0.0000   0.0000   0.0000   0.3235
  10.700   1.8803   0.02254   0.01641  -0.1724  0.0012  0.7967  -4.3451   0.0000   0.0000   0.0000   0.3226
  10.800   1.8851   0.02291   0.01682  -0.1716  0.0012  0.8071  -4.4138   0.0000   0.0000   0.0000   0.3218
  10.900   1.8899   0.02330   0.01725  -0.1708  0.0012  0.8212  -4.4810   0.0000   0.0000   0.0000   0.3209
  11.000   1.8948   0.02369   0.01769  -0.1701  0.0012  0.8353  -4.5465   0.0000   0.0000   0.0000   0.3201


