xflr5 v6.59

 Calculated polar for: WORTMANN FX 63-137 AIRFOIL

 1 1 Reynolds number fixed          Mach number fixed         

 xtrf =   1.000 (top)        1.000 (bottom)
 Mach =   0.000     Re =     2.300 e 6     Ncrit =   9.000

  alpha     CL        CD       CDp       Cm    Top Xtr Bot Xtr   Cpmin    Chinge    XCp    
 ------- -------- --------- --------- -------- ------- ------- -------- --------- ---------
   0.000   0.8954   0.01019   0.00264  -0.2031  0.1734  0.0193  -1.1249   0.0000   0.0000   0.0000   0.4750
   0.100   0.9067   0.01022   0.00267  -0.2032  0.1707  0.0192  -1.1354   0.0000   0.0000   0.0000   0.4720
   0.200   0.9181   0.01025   0.00269  -0.2032  0.1699  0.0191  -1.1459   0.0000   0.0000   0.0000   0.4692
   0.300   0.9295   0.01027   0.00272  -0.2032  0.1694  0.0190  -1.1563   0.0000   0.0000   0.0000   0.4664
   0.400   0.9408   0.01030   0.00274  -0.2033  0.1687  0.0190  -1.1667   0.0000   0.0000   0.0000   0.4636
   0.500   0.9521   0.01033   0.00277  -0.2033  0.1680  0.0190  -1.1772   0.0000   0.0000   0.0000   0.4609
   0.600   0.9634   0.01036   0.00280  -0.2033  0.1670  0.0190  -1.1876   0.0000   0.0000   0.0000   0.4583
   0.700   0.9746   0.01039   0.00284  -0.2033  0.1655  0.0190  -1.1981   0.0000   0.0000   0.0000   0.4558
   0.800   0.9858   0.01043   0.00287  -0.2033  0.1644  0.0191  -1.2085   0.0000   0.0000   0.0000   0.4533
   0.900   0.9950   0.01063   0.00301  -0.2030  0.1461  0.0194  -1.2189   0.0000   0.0000   0.0000   0.4509
   1.000   1.0058   0.01069   0.00304  -0.2029  0.1445  0.0222  -1.2312   0.0000   0.0000   0.0000   0.4485
   1.100   1.0170   0.01073   0.00313  -0.2030  0.1423  0.0333  -1.2446   0.0000   0.0000   0.0000   0.4461
   1.200   1.0279   0.01079   0.00318  -0.2029  0.1401  0.0357  -1.2571   0.0000   0.0000   0.0000   0.4438
   1.300   1.0388   0.01086   0.00324  -0.2029  0.1378  0.0369  -1.2690   0.0000   0.0000   0.0000   0.4416
   1.400   1.0496   0.01092   0.00329  -0.2028  0.1356  0.0375  -1.2818   0.0000   0.0000   0.0000   0.4394
   1.500   1.0605   0.01097   0.00333  -0.2028  0.1330  0.0380  -1.2944   0.0000   0.0000   0.0000   0.4372
   1.600   1.0714   0.01103   0.00337  -0.2028  0.1304  0.0383  -1.3070   0.0000   0.0000   0.0000   0.4351
   1.700   1.0824   0.01108   0.00342  -0.2027  0.1276  0.0393  -1.3196   0.0000   0.0000   0.0000   0.4330
   1.800   1.0933   0.01112   0.00346  -0.2027  0.1253  0.0409  -1.3335   0.0000   0.0000   0.0000   0.4310
   1.900   1.1043   0.01116   0.00350  -0.2027  0.1240  0.0429  -1.3481   0.0000   0.0000   0.0000   0.4290
   2.000   1.1154   0.01120   0.00354  -0.2027  0.1236  0.0455  -1.3632   0.0000   0.0000   0.0000   0.4270
   2.100   1.1264   0.01124   0.00359  -0.2027  0.1232  0.0480  -1.3783   0.0000   0.0000   0.0000   0.4251
   2.200   1.1374   0.01128   0.00364  -0.2027  0.1226  0.0506  -1.3935   0.0000   0.0000   0.0000   0.4232
   2.300   1.1488   0.01131   0.00371  -0.2028  0.1220  0.0686  -1.4113   0.0000   0.0000   0.0000   0.4214
   2.400   1.1600   0.01134   0.00376  -0.2028  0.1211  0.0810  -1.4298   0.0000   0.0000   0.0000   0.4196
   2.500   1.1716   0.01136   0.00381  -0.2029  0.1198  0.1052  -1.4489   0.0000   0.0000   0.0000   0.4178
   2.600   1.1836   0.01136   0.00387  -0.2032  0.1182  0.1432  -1.4685   0.0000   0.0000   0.0000   0.4161
   2.700   1.1922   0.01160   0.00404  -0.2028  0.1025  0.1486  -1.4890   0.0000   0.0000   0.0000   0.4144
   2.800   1.2026   0.01170   0.00413  -0.2027  0.0991  0.1625  -1.5020   0.0000   0.0000   0.0000   0.4127
   2.900   1.2135   0.01179   0.00422  -0.2027  0.0945  0.1921  -1.5191   0.0000   0.0000   0.0000   0.4111
   3.000   1.2237   0.01188   0.00431  -0.2026  0.0890  0.1965  -1.5403   0.0000   0.0000   0.0000   0.4094
   3.100   1.2348   0.01193   0.00438  -0.2026  0.0846  0.2147  -1.5624   0.0000   0.0000   0.0000   0.4079
   3.200   1.2466   0.01195   0.00446  -0.2029  0.0838  0.2470  -1.5879   0.0000   0.0000   0.0000   0.4064
   3.300   1.2575   0.01200   0.00453  -0.2029  0.0829  0.2602  -1.6124   0.0000   0.0000   0.0000   0.4048
   3.400   1.2695   0.01201   0.00461  -0.2032  0.0815  0.2958  -1.6379   0.0000   0.0000   0.0000   0.4034
   3.500   1.2802   0.01208   0.00469  -0.2031  0.0791  0.3090  -1.6625   0.0000   0.0000   0.0000   0.4018
   3.600   1.2894   0.01228   0.00488  -0.2029  0.0665  0.3291  -1.6894   0.0000   0.0000   0.0000   0.4004
   3.700   1.3007   0.01234   0.00497  -0.2030  0.0644  0.3637  -1.7099   0.0000   0.0000   0.0000   0.3990
   3.800   1.3108   0.01244   0.00506  -0.2029  0.0625  0.3699  -1.7291   0.0000   0.0000   0.0000   0.3975
   3.900   1.3218   0.01246   0.00512  -0.2028  0.0646  0.3690  -1.7549   0.0000   0.0000   0.0000   0.3960
   4.000   1.3325   0.01252   0.00520  -0.2028  0.0637  0.3845  -1.7829   0.0000   0.0000   0.0000   0.3946
   4.100   1.3430   0.01260   0.00529  -0.2028  0.0622  0.3993  -1.8163   0.0000   0.0000   0.0000   0.3933
   4.200   1.3537   0.01267   0.00539  -0.2028  0.0606  0.4202  -1.8502   0.0000   0.0000   0.0000   0.3919
   4.300   1.3641   0.01276   0.00548  -0.2026  0.0587  0.4315  -1.8836   0.0000   0.0000   0.0000   0.3905
   4.400   1.3742   0.01285   0.00558  -0.2025  0.0567  0.4397  -1.9169   0.0000   0.0000   0.0000   0.3892
   4.500   1.3847   0.01292   0.00568  -0.2024  0.0549  0.4532  -1.9509   0.0000   0.0000   0.0000   0.3879
   4.600   1.3950   0.01300   0.00577  -0.2023  0.0534  0.4628  -1.9848   0.0000   0.0000   0.0000   0.3866
   4.700   1.4052   0.01308   0.00586  -0.2022  0.0521  0.4706  -2.0186   0.0000   0.0000   0.0000   0.3853
   4.800   1.4157   0.01315   0.00596  -0.2021  0.0516  0.4838  -2.0536   0.0000   0.0000   0.0000   0.3840
   4.900   1.4260   0.01323   0.00606  -0.2020  0.0513  0.4954  -2.0889   0.0000   0.0000   0.0000   0.3827
   5.000   1.4361   0.01331   0.00615  -0.2018  0.0509  0.5050  -2.1240   0.0000   0.0000   0.0000   0.3815
   5.100   1.4465   0.01339   0.00627  -0.2018  0.0501  0.5219  -2.1599   0.0000   0.0000   0.0000   0.3802
   5.200   1.4562   0.01349   0.00638  -0.2015  0.0490  0.5307  -2.1951   0.0000   0.0000   0.0000   0.3790
   5.300   1.4658   0.01361   0.00650  -0.2013  0.0475  0.5367  -2.2302   0.0000   0.0000   0.0000   0.3778
   5.400   1.4752   0.01373   0.00662  -0.2010  0.0458  0.5416  -2.2652   0.0000   0.0000   0.0000   0.3765
   5.500   1.4846   0.01385   0.00674  -0.2007  0.0443  0.5457  -2.3001   0.0000   0.0000   0.0000   0.3753
   5.600   1.4938   0.01398   0.00687  -0.2004  0.0428  0.5494  -2.3348   0.0000   0.0000   0.0000   0.3741
   5.700   1.5031   0.01410   0.00699  -0.2001  0.0412  0.5532  -2.3695   0.0000   0.0000   0.0000   0.3729
   5.800   1.5124   0.01422   0.00711  -0.1998  0.0396  0.5568  -2.4043   0.0000   0.0000   0.0000   0.3717
   5.900   1.5218   0.01433   0.00722  -0.1995  0.0383  0.5604  -2.4393   0.0000   0.0000   0.0000   0.3706
   6.000   1.5309   0.01445   0.00735  -0.1991  0.0374  0.5649  -2.4766   0.0000   0.0000   0.0000   0.3694
   6.100   1.5402   0.01457   0.00747  -0.1988  0.0365  0.5735  -2.5137   0.0000   0.0000   0.0000   0.3683
   6.200   1.5495   0.01468   0.00760  -0.1986  0.0355  0.5833  -2.5508   0.0000   0.0000   0.0000   0.3672
   6.300   1.5586   0.01480   0.00773  -0.1982  0.0345  0.5914  -2.5877   0.0000   0.0000   0.0000   0.3660
   6.400   1.5635   0.01518   0.00804  -0.1971  0.0251  0.5964  -2.6243   0.0000   0.0000   0.0000   0.3648
   6.500   1.5709   0.01541   0.00824  -0.1965  0.0218  0.6056  -2.6475   0.0000   0.0000   0.0000   0.3636
   6.600   1.5789   0.01558   0.00842  -0.1960  0.0187  0.6145  -2.6725   0.0000   0.0000   0.0000   0.3625
   6.700   1.5870   0.01571   0.00856  -0.1955  0.0169  0.6210  -2.7042   0.0000   0.0000   0.0000   0.3614
   6.800   1.5945   0.01584   0.00869  -0.1948  0.0163  0.6258  -2.7366   0.0000   0.0000   0.0000   0.3602
   7.100   1.6075   0.01671   0.00957  -0.1911  0.0044  0.6418  -2.8273   0.0000   0.0000   0.0000   0.3565
   7.200   1.6146   0.01688   0.00975  -0.1904  0.0042  0.6482  -2.8608   0.0000   0.0000   0.0000   0.3553
   7.300   1.6215   0.01706   0.00993  -0.1897  0.0040  0.6536  -2.8942   0.0000   0.0000   0.0000   0.3542
   7.400   1.6285   0.01723   0.01011  -0.1890  0.0038  0.6578  -2.9277   0.0000   0.0000   0.0000   0.3531
   9.000   1.7362   0.02038   0.01349  -0.1779  0.0013  0.7444  -3.4563   0.0000   0.0000   0.0000   0.3367
   9.700   1.7775   0.02236   0.01566  -0.1730  0.0013  0.8107  -3.7004   0.0000   0.0000   0.0000   0.3302
   9.800   1.7832   0.02267   0.01602  -0.1723  0.0013  0.8237  -3.7419   0.0000   0.0000   0.0000   0.3293
   9.900   1.7890   0.02299   0.01638  -0.1716  0.0013  0.8378  -3.7839   0.0000   0.0000   0.0000   0.3285
  10.000   1.7947   0.02332   0.01676  -0.1710  0.0013  0.8561  -3.8254   0.0000   0.0000   0.0000   0.3276
  10.100   1.8003   0.02365   0.01717  -0.1703  0.0013  0.8891  -3.8665   0.0000   0.0000   0.0000   0.3267
  10.200   1.8010   0.02385   0.01750  -0.1687  0.0013  1.0000  -3.8951   0.0000   0.0000   0.0000   0.3256
  10.300   1.8060   0.02423   0.01790  -0.1679  0.0013  1.0000  -3.9344   0.0000   0.0000   0.0000   0.3247
  10.400   1.8106   0.02463   0.01833  -0.1671  0.0013  1.0000  -3.9724   0.0000   0.0000   0.0000   0.3239
  10.500   1.8147   0.02507   0.01879  -0.1663  0.0013  1.0000  -4.0082   0.0000   0.0000   0.0000   0.3230
  10.600   1.8185   0.02552   0.01928  -0.1654  0.0013  1.0000  -4.0418   0.0000   0.0000   0.0000   0.3221
  10.700   1.8209   0.02611   0.01993  -0.1644  0.0015  1.0000  -4.0537   0.0000   0.0000   0.0000   0.3212
  10.800   1.8247   0.02658   0.02042  -0.1636  0.0015  1.0000  -4.0912   0.0000   0.0000   0.0000   0.3204
  10.900   1.8287   0.02707   0.02094  -0.1628  0.0016  1.0000  -4.1288   0.0000   0.0000   0.0000   0.3196
  11.000   1.8329   0.02754   0.02143  -0.1620  0.0016  1.0000  -4.1677   0.0000   0.0000   0.0000   0.3188
  11.100   1.8371   0.02802   0.02192  -0.1613  0.0017  1.0000  -4.2070   0.0000   0.0000   0.0000   0.3180
  11.200   1.8408   0.02855   0.02247  -0.1606  0.0018  1.0000  -4.2446   0.0000   0.0000   0.0000   0.3172
  11.300   1.8443   0.02910   0.02303  -0.1598  0.0018  1.0000  -4.2821   0.0000   0.0000   0.0000   0.3164
  11.400   1.8481   0.02963   0.02359  -0.1591  0.0019  1.0000  -4.3203   0.0000   0.0000   0.0000   0.3156
  11.500   1.8520   0.03017   0.02415  -0.1584  0.0020  1.0000  -4.3586   0.0000   0.0000   0.0000   0.3148
  11.600   1.8552   0.03078   0.02477  -0.1577  0.0021  1.0000  -4.4104   0.0000   0.0000   0.0000   0.3141
  11.700   1.8580   0.03142   0.02544  -0.1569  0.0022  1.0000  -4.4769   0.0000   0.0000   0.0000   0.3133
  11.800   1.8609   0.03206   0.02610  -0.1562  0.0023  1.0000  -4.5438   0.0000   0.0000   0.0000   0.3126
  11.900   1.8638   0.03271   0.02678  -0.1555  0.0025  1.0000  -4.6090   0.0000   0.0000   0.0000   0.3119
  12.000   1.8661   0.03342   0.02752  -0.1547  0.0027  1.0000  -4.6671   0.0000   0.0000   0.0000   0.3111


