xflr5 v6.59

 Calculated polar for: WORTMANN FX 63-137 AIRFOIL

 1 1 Reynolds number fixed          Mach number fixed         

 xtrf =   1.000 (top)        1.000 (bottom)
 Mach =   0.000     Re =     3.000 e 6     Ncrit =   9.000

  alpha     CL        CD       CDp       Cm    Top Xtr Bot Xtr   Cpmin    Chinge    XCp    
 ------- -------- --------- --------- -------- ------- ------- -------- --------- ---------
   0.000   0.9000   0.00996   0.00263  -0.2042  0.1422  0.0189  -1.1312   0.0000   0.0000   0.0000   0.4750
   0.100   0.9111   0.01001   0.00267  -0.2042  0.1402  0.0188  -1.1415   0.0000   0.0000   0.0000   0.4721
   0.200   0.9223   0.01006   0.00270  -0.2042  0.1382  0.0187  -1.1518   0.0000   0.0000   0.0000   0.4692
   0.300   0.9334   0.01011   0.00274  -0.2042  0.1362  0.0185  -1.1621   0.0000   0.0000   0.0000   0.4665
   0.400   0.9445   0.01015   0.00277  -0.2042  0.1342  0.0184  -1.1724   0.0000   0.0000   0.0000   0.4637
   0.500   0.9557   0.01019   0.00280  -0.2042  0.1319  0.0183  -1.1827   0.0000   0.0000   0.0000   0.4611
   0.600   0.9669   0.01023   0.00284  -0.2042  0.1295  0.0183  -1.1930   0.0000   0.0000   0.0000   0.4585
   0.700   0.9781   0.01026   0.00287  -0.2042  0.1272  0.0182  -1.2034   0.0000   0.0000   0.0000   0.4559
   0.800   0.9893   0.01030   0.00291  -0.2042  0.1252  0.0182  -1.2158   0.0000   0.0000   0.0000   0.4534
   0.900   1.0005   0.01033   0.00295  -0.2042  0.1241  0.0186  -1.2282   0.0000   0.0000   0.0000   0.4510
   1.000   1.0117   0.01036   0.00298  -0.2042  0.1239  0.0189  -1.2405   0.0000   0.0000   0.0000   0.4486
   1.100   1.0228   0.01040   0.00301  -0.2042  0.1235  0.0221  -1.2528   0.0000   0.0000   0.0000   0.4462
   1.200   1.0341   0.01043   0.00307  -0.2042  0.1232  0.0261  -1.2652   0.0000   0.0000   0.0000   0.4439
   1.300   1.0456   0.01045   0.00311  -0.2043  0.1228  0.0344  -1.2777   0.0000   0.0000   0.0000   0.4417
   1.400   1.0568   0.01048   0.00315  -0.2043  0.1223  0.0360  -1.2901   0.0000   0.0000   0.0000   0.4395
   1.500   1.0679   0.01052   0.00319  -0.2044  0.1217  0.0368  -1.3026   0.0000   0.0000   0.0000   0.4374
   1.600   1.0790   0.01056   0.00322  -0.2044  0.1210  0.0374  -1.3150   0.0000   0.0000   0.0000   0.4352
   1.700   1.0901   0.01060   0.00327  -0.2043  0.1198  0.0379  -1.3301   0.0000   0.0000   0.0000   0.4332
   1.800   1.1011   0.01064   0.00331  -0.2043  0.1188  0.0382  -1.3453   0.0000   0.0000   0.0000   0.4312
   1.900   1.1102   0.01085   0.00345  -0.2040  0.1030  0.0385  -1.3647   0.0000   0.0000   0.0000   0.4292
   2.000   1.1210   0.01091   0.00350  -0.2039  0.1017  0.0399  -1.3795   0.0000   0.0000   0.0000   0.4272
   2.100   1.1317   0.01098   0.00355  -0.2038  0.1004  0.0417  -1.3946   0.0000   0.0000   0.0000   0.4253
   2.200   1.1424   0.01104   0.00360  -0.2038  0.0990  0.0447  -1.4099   0.0000   0.0000   0.0000   0.4234
   2.300   1.1536   0.01108   0.00368  -0.2038  0.0978  0.0629  -1.4255   0.0000   0.0000   0.0000   0.4216
   2.400   1.1644   0.01115   0.00373  -0.2038  0.0965  0.0650  -1.4408   0.0000   0.0000   0.0000   0.4197
   2.500   1.1751   0.01121   0.00379  -0.2037  0.0941  0.0673  -1.4561   0.0000   0.0000   0.0000   0.4179
   2.600   1.1857   0.01129   0.00386  -0.2036  0.0880  0.0792  -1.4720   0.0000   0.0000   0.0000   0.4162
   2.700   1.1971   0.01132   0.00392  -0.2037  0.0842  0.1020  -1.4877   0.0000   0.0000   0.0000   0.4145
   2.800   1.2079   0.01138   0.00398  -0.2037  0.0835  0.1076  -1.5091   0.0000   0.0000   0.0000   0.4128
   2.900   1.2187   0.01143   0.00405  -0.2036  0.0823  0.1152  -1.5331   0.0000   0.0000   0.0000   0.4111
   3.000   1.2295   0.01149   0.00412  -0.2036  0.0804  0.1223  -1.5573   0.0000   0.0000   0.0000   0.4095
   3.100   1.2388   0.01169   0.00429  -0.2033  0.0664  0.1434  -1.5836   0.0000   0.0000   0.0000   0.4079
   3.200   1.2489   0.01179   0.00437  -0.2032  0.0637  0.1462  -1.6024   0.0000   0.0000   0.0000   0.4063
   3.300   1.2593   0.01188   0.00445  -0.2030  0.0616  0.1563  -1.6214   0.0000   0.0000   0.0000   0.4047
   3.400   1.2701   0.01195   0.00452  -0.2030  0.0596  0.1683  -1.6412   0.0000   0.0000   0.0000   0.4032
   3.500   1.2813   0.01199   0.00460  -0.2031  0.0575  0.1929  -1.6625   0.0000   0.0000   0.0000   0.4017
   3.600   1.2919   0.01206   0.00467  -0.2030  0.0554  0.1992  -1.6840   0.0000   0.0000   0.0000   0.4002
   3.700   1.3028   0.01211   0.00474  -0.2031  0.0536  0.2143  -1.7066   0.0000   0.0000   0.0000   0.3987
   3.800   1.3145   0.01213   0.00481  -0.2033  0.0521  0.2467  -1.7300   0.0000   0.0000   0.0000   0.3974
   3.900   1.3245   0.01220   0.00487  -0.2030  0.0547  0.2288  -1.7561   0.0000   0.0000   0.0000   0.3959
   4.000   1.3356   0.01225   0.00494  -0.2031  0.0539  0.2496  -1.7903   0.0000   0.0000   0.0000   0.3945
   4.100   1.3467   0.01229   0.00502  -0.2031  0.0528  0.2694  -1.8246   0.0000   0.0000   0.0000   0.3931
   4.200   1.3584   0.01231   0.00510  -0.2034  0.0518  0.3053  -1.8600   0.0000   0.0000   0.0000   0.3918
   4.300   1.3691   0.01237   0.00517  -0.2033  0.0516  0.3173  -1.8944   0.0000   0.0000   0.0000   0.3905
   4.400   1.3805   0.01240   0.00526  -0.2035  0.0514  0.3443  -1.9301   0.0000   0.0000   0.0000   0.3892
   4.500   1.3917   0.01244   0.00534  -0.2036  0.0511  0.3688  -1.9659   0.0000   0.0000   0.0000   0.3880
   4.600   1.4023   0.01251   0.00543  -0.2035  0.0505  0.3837  -2.0011   0.0000   0.0000   0.0000   0.3867
   4.700   1.4129   0.01257   0.00553  -0.2035  0.0496  0.3995  -2.0367   0.0000   0.0000   0.0000   0.3854
   4.800   1.4236   0.01265   0.00564  -0.2035  0.0479  0.4221  -2.0727   0.0000   0.0000   0.0000   0.3842
   4.900   1.4334   0.01276   0.00576  -0.2033  0.0457  0.4324  -2.1076   0.0000   0.0000   0.0000   0.3829
   5.000   1.4431   0.01289   0.00588  -0.2030  0.0436  0.4417  -2.1422   0.0000   0.0000   0.0000   0.3816
   5.100   1.4534   0.01298   0.00600  -0.2030  0.0417  0.4617  -2.1777   0.0000   0.0000   0.0000   0.3804
   5.200   1.4641   0.01305   0.00611  -0.2030  0.0400  0.4888  -2.2138   0.0000   0.0000   0.0000   0.3792
   5.300   1.4742   0.01313   0.00621  -0.2028  0.0386  0.5001  -2.2491   0.0000   0.0000   0.0000   0.3780
   5.400   1.4846   0.01321   0.00631  -0.2027  0.0381  0.5170  -2.2855   0.0000   0.0000   0.0000   0.3769
   5.500   1.4946   0.01329   0.00641  -0.2026  0.0379  0.5220  -2.3216   0.0000   0.0000   0.0000   0.3757
   5.600   1.5044   0.01338   0.00650  -0.2023  0.0376  0.5252  -2.3577   0.0000   0.0000   0.0000   0.3745
   5.700   1.5141   0.01347   0.00659  -0.2021  0.0373  0.5279  -2.3939   0.0000   0.0000   0.0000   0.3733
   5.800   1.5238   0.01357   0.00668  -0.2019  0.0370  0.5301  -2.4302   0.0000   0.0000   0.0000   0.3721
   5.900   1.5334   0.01367   0.00678  -0.2016  0.0365  0.5320  -2.4666   0.0000   0.0000   0.0000   0.3710
   6.000   1.5380   0.01411   0.00714  -0.2005  0.0233  0.5363  -2.4984   0.0000   0.0000   0.0000   0.3697
   6.100   1.5459   0.01432   0.00732  -0.1999  0.0177  0.5410  -2.5178   0.0000   0.0000   0.0000   0.3685
   6.200   1.5551   0.01444   0.00745  -0.1996  0.0165  0.5458  -2.5518   0.0000   0.0000   0.0000   0.3674
   6.500   1.5767   0.01518   0.00817  -0.1975  0.0043  0.5622  -2.6567   0.0000   0.0000   0.0000   0.3638
   6.600   1.5852   0.01532   0.00831  -0.1971  0.0041  0.5654  -2.6923   0.0000   0.0000   0.0000   0.3627
   6.700   1.5941   0.01544   0.00845  -0.1967  0.0039  0.5758  -2.7286   0.0000   0.0000   0.0000   0.3616
   6.800   1.6028   0.01557   0.00859  -0.1963  0.0038  0.5835  -2.7645   0.0000   0.0000   0.0000   0.3605
   6.900   1.6108   0.01570   0.00873  -0.1958  0.0036  0.5885  -2.7989   0.0000   0.0000   0.0000   0.3594
   7.000   1.6181   0.01583   0.00886  -0.1951  0.0034  0.5930  -2.8320   0.0000   0.0000   0.0000   0.3583
   7.100   1.6252   0.01596   0.00900  -0.1943  0.0033  0.5968  -2.8647   0.0000   0.0000   0.0000   0.3571
   7.200   1.6327   0.01609   0.00914  -0.1937  0.0031  0.6058  -2.8982   0.0000   0.0000   0.0000   0.3560
   7.300   1.6404   0.01622   0.00930  -0.1931  0.0029  0.6156  -2.9320   0.0000   0.0000   0.0000   0.3549
   7.400   1.6477   0.01636   0.00945  -0.1924  0.0027  0.6229  -2.9654   0.0000   0.0000   0.0000   0.3538
   7.500   1.6549   0.01650   0.00959  -0.1918  0.0025  0.6276  -2.9985   0.0000   0.0000   0.0000   0.3527
   7.600   1.6622   0.01665   0.00975  -0.1911  0.0023  0.6324  -3.0320   0.0000   0.0000   0.0000   0.3517
   7.700   1.6697   0.01679   0.00991  -0.1905  0.0021  0.6419  -3.0662   0.0000   0.0000   0.0000   0.3506
   7.800   1.6771   0.01695   0.01008  -0.1899  0.0019  0.6490  -3.1003   0.0000   0.0000   0.0000   0.3496
   7.900   1.6842   0.01710   0.01025  -0.1892  0.0017  0.6548  -3.1341   0.0000   0.0000   0.0000   0.3485
   8.000   1.6912   0.01727   0.01042  -0.1885  0.0015  0.6592  -3.1678   0.0000   0.0000   0.0000   0.3474
   8.600   1.7319   0.01837   0.01161  -0.1842  0.0013  0.6899  -3.3712   0.0000   0.0000   0.0000   0.3413
   8.700   1.7383   0.01858   0.01182  -0.1835  0.0013  0.6933  -3.4048   0.0000   0.0000   0.0000   0.3403
   8.800   1.7448   0.01879   0.01205  -0.1828  0.0013  0.6997  -3.4386   0.0000   0.0000   0.0000   0.3393
   8.900   1.7512   0.01901   0.01229  -0.1821  0.0013  0.7054  -3.4725   0.0000   0.0000   0.0000   0.3384
   9.000   1.7576   0.01923   0.01253  -0.1813  0.0013  0.7105  -3.5062   0.0000   0.0000   0.0000   0.3374
   9.100   1.7636   0.01946   0.01277  -0.1806  0.0013  0.7153  -3.5395   0.0000   0.0000   0.0000   0.3364
   9.200   1.7695   0.01970   0.01303  -0.1798  0.0013  0.7197  -3.5722   0.0000   0.0000   0.0000   0.3354
  10.100   1.8220   0.02221   0.01577  -0.1732  0.0013  0.7992  -3.9396   0.0000   0.0000   0.0000   0.3272
  10.200   1.8276   0.02254   0.01613  -0.1725  0.0013  0.8102  -3.9819   0.0000   0.0000   0.0000   0.3263
  10.300   1.8333   0.02287   0.01650  -0.1718  0.0013  0.8236  -4.0244   0.0000   0.0000   0.0000   0.3255
  10.400   1.8386   0.02323   0.01690  -0.1711  0.0013  0.8383  -4.0657   0.0000   0.0000   0.0000   0.3246
  10.500   1.8438   0.02359   0.01733  -0.1704  0.0013  0.8578  -4.1067   0.0000   0.0000   0.0000   0.3238
  10.600   1.8495   0.02395   0.01777  -0.1698  0.0013  0.8947  -4.1485   0.0000   0.0000   0.0000   0.3230


