xflr5 v6.59

 Calculated polar for: WORTMANN FX 63-137 AIRFOIL

 1 1 Reynolds number fixed          Mach number fixed         

 xtrf =   1.000 (top)        1.000 (bottom)
 Mach =   0.000     Re =     2.000 e 6     Ncrit =   9.000

  alpha     CL        CD       CDp       Cm    Top Xtr Bot Xtr   Cpmin    Chinge    XCp    
 ------- -------- --------- --------- -------- ------- ------- -------- --------- ---------
   0.000   0.8938   0.01025   0.00262  -0.2027  0.1952  0.0196  -1.1187   0.0000   0.0000   0.0000   0.4749
   0.100   0.9046   0.01031   0.00266  -0.2026  0.1910  0.0195  -1.1295   0.0000   0.0000   0.0000   0.4720
   0.200   0.9156   0.01037   0.00270  -0.2026  0.1879  0.0195  -1.1403   0.0000   0.0000   0.0000   0.4691
   0.300   0.9265   0.01043   0.00275  -0.2026  0.1848  0.0194  -1.1513   0.0000   0.0000   0.0000   0.4663
   0.400   0.9374   0.01049   0.00279  -0.2025  0.1817  0.0194  -1.1622   0.0000   0.0000   0.0000   0.4636
   0.500   0.9484   0.01055   0.00283  -0.2025  0.1781  0.0194  -1.1730   0.0000   0.0000   0.0000   0.4609
   0.600   0.9595   0.01059   0.00287  -0.2025  0.1744  0.0194  -1.1836   0.0000   0.0000   0.0000   0.4583
   0.700   0.9707   0.01063   0.00290  -0.2025  0.1712  0.0195  -1.1942   0.0000   0.0000   0.0000   0.4557
   0.800   0.9819   0.01067   0.00294  -0.2025  0.1700  0.0197  -1.2046   0.0000   0.0000   0.0000   0.4532
   0.900   0.9931   0.01070   0.00297  -0.2025  0.1694  0.0202  -1.2150   0.0000   0.0000   0.0000   0.4508
   1.000   1.0044   0.01073   0.00304  -0.2025  0.1688  0.0266  -1.2255   0.0000   0.0000   0.0000   0.4484
   1.100   1.0158   0.01075   0.00308  -0.2026  0.1680  0.0357  -1.2378   0.0000   0.0000   0.0000   0.4460
   1.200   1.0270   0.01078   0.00312  -0.2026  0.1670  0.0371  -1.2528   0.0000   0.0000   0.0000   0.4437
   1.300   1.0381   0.01082   0.00316  -0.2026  0.1654  0.0378  -1.2681   0.0000   0.0000   0.0000   0.4415
   1.400   1.0492   0.01086   0.00319  -0.2026  0.1640  0.0382  -1.2832   0.0000   0.0000   0.0000   0.4393
   1.500   1.0581   0.01108   0.00334  -0.2023  0.1460  0.0387  -1.3017   0.0000   0.0000   0.0000   0.4372
   1.600   1.0688   0.01115   0.00339  -0.2022  0.1435  0.0402  -1.3152   0.0000   0.0000   0.0000   0.4350
   1.700   1.0795   0.01122   0.00344  -0.2021  0.1411  0.0419  -1.3278   0.0000   0.0000   0.0000   0.4330
   1.800   1.0901   0.01129   0.00350  -0.2020  0.1386  0.0441  -1.3395   0.0000   0.0000   0.0000   0.4309
   1.900   1.1007   0.01137   0.00356  -0.2019  0.1362  0.0468  -1.3507   0.0000   0.0000   0.0000   0.4289
   2.000   1.1114   0.01144   0.00362  -0.2019  0.1335  0.0489  -1.3622   0.0000   0.0000   0.0000   0.4269
   2.100   1.1222   0.01149   0.00369  -0.2018  0.1306  0.0512  -1.3748   0.0000   0.0000   0.0000   0.4250
   2.200   1.1334   0.01154   0.00374  -0.2019  0.1275  0.0638  -1.3883   0.0000   0.0000   0.0000   0.4231
   2.300   1.1443   0.01159   0.00380  -0.2018  0.1250  0.0685  -1.4040   0.0000   0.0000   0.0000   0.4213
   2.400   1.1563   0.01158   0.00386  -0.2021  0.1239  0.1102  -1.4228   0.0000   0.0000   0.0000   0.4195
   2.500   1.1685   0.01157   0.00391  -0.2024  0.1234  0.1486  -1.4420   0.0000   0.0000   0.0000   0.4178
   2.600   1.1810   0.01155   0.00397  -0.2028  0.1228  0.1921  -1.4616   0.0000   0.0000   0.0000   0.4162
   2.700   1.1920   0.01159   0.00402  -0.2028  0.1221  0.1997  -1.4800   0.0000   0.0000   0.0000   0.4144
   2.800   1.2035   0.01161   0.00409  -0.2029  0.1212  0.2196  -1.4992   0.0000   0.0000   0.0000   0.4128
   2.900   1.2151   0.01164   0.00416  -0.2031  0.1182  0.2485  -1.5194   0.0000   0.0000   0.0000   0.4112
   3.000   1.2238   0.01189   0.00435  -0.2028  0.1016  0.2666  -1.5398   0.0000   0.0000   0.0000   0.4096
   3.100   1.2349   0.01197   0.00446  -0.2029  0.0974  0.3041  -1.5605   0.0000   0.0000   0.0000   0.4080
   3.200   1.2450   0.01209   0.00456  -0.2027  0.0924  0.3172  -1.5820   0.0000   0.0000   0.0000   0.4065
   3.300   1.2563   0.01214   0.00466  -0.2029  0.0869  0.3450  -1.6044   0.0000   0.0000   0.0000   0.4050
   3.400   1.2675   0.01219   0.00475  -0.2030  0.0842  0.3686  -1.6279   0.0000   0.0000   0.0000   0.4035
   3.500   1.2785   0.01224   0.00483  -0.2030  0.0835  0.3832  -1.6529   0.0000   0.0000   0.0000   0.4020
   3.600   1.2894   0.01229   0.00491  -0.2030  0.0823  0.3977  -1.6775   0.0000   0.0000   0.0000   0.4005
   3.700   1.3002   0.01235   0.00500  -0.2030  0.0807  0.4143  -1.7021   0.0000   0.0000   0.0000   0.3990
   3.800   1.3108   0.01242   0.00509  -0.2030  0.0783  0.4277  -1.7267   0.0000   0.0000   0.0000   0.3976
   3.900   1.3217   0.01245   0.00515  -0.2029  0.0813  0.4271  -1.7478   0.0000   0.0000   0.0000   0.3961
   4.000   1.3322   0.01252   0.00522  -0.2028  0.0805  0.4343  -1.7811   0.0000   0.0000   0.0000   0.3947
   4.100   1.3427   0.01260   0.00532  -0.2028  0.0782  0.4464  -1.8145   0.0000   0.0000   0.0000   0.3933
   4.200   1.3509   0.01285   0.00553  -0.2023  0.0658  0.4568  -1.8445   0.0000   0.0000   0.0000   0.3919
   4.300   1.3608   0.01296   0.00563  -0.2021  0.0640  0.4647  -1.8772   0.0000   0.0000   0.0000   0.3905
   4.400   1.3707   0.01307   0.00573  -0.2019  0.0622  0.4738  -1.9102   0.0000   0.0000   0.0000   0.3891
   4.500   1.3809   0.01316   0.00583  -0.2018  0.0604  0.4852  -1.9436   0.0000   0.0000   0.0000   0.3878
   4.600   1.3908   0.01326   0.00593  -0.2016  0.0585  0.4928  -1.9769   0.0000   0.0000   0.0000   0.3865
   4.700   1.4006   0.01336   0.00603  -0.2013  0.0564  0.4975  -2.0100   0.0000   0.0000   0.0000   0.3851
   4.800   1.4106   0.01346   0.00613  -0.2012  0.0546  0.5055  -2.0435   0.0000   0.0000   0.0000   0.3838
   4.900   1.4210   0.01354   0.00624  -0.2011  0.0531  0.5202  -2.0778   0.0000   0.0000   0.0000   0.3826
   5.000   1.4309   0.01362   0.00635  -0.2009  0.0517  0.5300  -2.1117   0.0000   0.0000   0.0000   0.3813
   5.100   1.4410   0.01371   0.00645  -0.2007  0.0515  0.5391  -2.1469   0.0000   0.0000   0.0000   0.3801
   5.200   1.4510   0.01380   0.00656  -0.2006  0.0511  0.5490  -2.1825   0.0000   0.0000   0.0000   0.3788
   5.300   1.4608   0.01390   0.00667  -0.2003  0.0506  0.5534  -2.2177   0.0000   0.0000   0.0000   0.3776
   5.400   1.4703   0.01400   0.00678  -0.2001  0.0497  0.5565  -2.2527   0.0000   0.0000   0.0000   0.3764
   5.500   1.4796   0.01412   0.00690  -0.1998  0.0486  0.5598  -2.2877   0.0000   0.0000   0.0000   0.3752
   5.600   1.4888   0.01425   0.00702  -0.1994  0.0473  0.5626  -2.3225   0.0000   0.0000   0.0000   0.3739
   5.700   1.4979   0.01438   0.00714  -0.1991  0.0459  0.5649  -2.3572   0.0000   0.0000   0.0000   0.3727
   5.800   1.5070   0.01451   0.00727  -0.1987  0.0445  0.5704  -2.3921   0.0000   0.0000   0.0000   0.3716
   5.900   1.5161   0.01464   0.00741  -0.1984  0.0430  0.5787  -2.4271   0.0000   0.0000   0.0000   0.3704
   6.000   1.5252   0.01477   0.00756  -0.1981  0.0414  0.5875  -2.4621   0.0000   0.0000   0.0000   0.3692
   6.100   1.5337   0.01493   0.00774  -0.1977  0.0378  0.5966  -2.4977   0.0000   0.0000   0.0000   0.3681
   6.200   1.5430   0.01504   0.00786  -0.1974  0.0373  0.6073  -2.5343   0.0000   0.0000   0.0000   0.3669
   6.300   1.5522   0.01515   0.00799  -0.1971  0.0368  0.6170  -2.5709   0.0000   0.0000   0.0000   0.3658
   6.400   1.5611   0.01527   0.00812  -0.1967  0.0362  0.6237  -2.6071   0.0000   0.0000   0.0000   0.3647
   6.500   1.5698   0.01540   0.00824  -0.1963  0.0353  0.6277  -2.6432   0.0000   0.0000   0.0000   0.3636
   6.600   1.5781   0.01554   0.00838  -0.1958  0.0343  0.6313  -2.6792   0.0000   0.0000   0.0000   0.3624
   6.700   1.5812   0.01591   0.00869  -0.1944  0.0260  0.6380  -2.7140   0.0000   0.0000   0.0000   0.3611
   6.800   1.5870   0.01613   0.00890  -0.1934  0.0231  0.6442  -2.7396   0.0000   0.0000   0.0000   0.3599
   6.900   1.5928   0.01635   0.00912  -0.1925  0.0203  0.6495  -2.7592   0.0000   0.0000   0.0000   0.3587
   7.000   1.5997   0.01652   0.00928  -0.1917  0.0174  0.6542  -2.7852   0.0000   0.0000   0.0000   0.3576
   7.100   1.6069   0.01667   0.00944  -0.1910  0.0166  0.6582  -2.8171   0.0000   0.0000   0.0000   0.3564
   7.200   1.6143   0.01682   0.00959  -0.1904  0.0162  0.6621  -2.8501   0.0000   0.0000   0.0000   0.3553
   7.400   1.6196   0.01764   0.01040  -0.1874  0.0044  0.6736  -2.9072   0.0000   0.0000   0.0000   0.3528
   7.500   1.6262   0.01783   0.01061  -0.1867  0.0042  0.6785  -2.9404   0.0000   0.0000   0.0000   0.3517
   7.600   1.6327   0.01803   0.01082  -0.1859  0.0040  0.6829  -2.9733   0.0000   0.0000   0.0000   0.3506
   7.700   1.6391   0.01824   0.01103  -0.1851  0.0039  0.6866  -3.0059   0.0000   0.0000   0.0000   0.3495
   7.800   1.6457   0.01843   0.01123  -0.1844  0.0037  0.6897  -3.0385   0.0000   0.0000   0.0000   0.3484
   7.900   1.6525   0.01862   0.01143  -0.1837  0.0034  0.6934  -3.0710   0.0000   0.0000   0.0000   0.3474
   8.000   1.6596   0.01881   0.01163  -0.1831  0.0032  0.6996  -3.1038   0.0000   0.0000   0.0000   0.3463
   8.100   1.6666   0.01900   0.01184  -0.1824  0.0029  0.7051  -3.1363   0.0000   0.0000   0.0000   0.3453
   8.200   1.6734   0.01920   0.01204  -0.1818  0.0025  0.7103  -3.1686   0.0000   0.0000   0.0000   0.3443
   8.300   1.6803   0.01940   0.01225  -0.1811  0.0022  0.7152  -3.2013   0.0000   0.0000   0.0000   0.3433
   8.400   1.6871   0.01960   0.01246  -0.1805  0.0019  0.7198  -3.2342   0.0000   0.0000   0.0000   0.3423
   8.500   1.6935   0.01982   0.01273  -0.1798  0.0022  0.7266  -3.2676   0.0000   0.0000   0.0000   0.3413
   8.600   1.7001   0.02004   0.01297  -0.1791  0.0020  0.7345  -3.3005   0.0000   0.0000   0.0000   0.3403
   8.700   1.7063   0.02028   0.01323  -0.1783  0.0014  0.7420  -3.3323   0.0000   0.0000   0.0000   0.3393
  10.500   1.8003   0.02599   0.01961  -0.1644  0.0014  1.0000  -3.9572   0.0000   0.0000   0.0000   0.3227
  11.100   1.8224   0.02907   0.02286  -0.1597  0.0016  1.0000  -4.1646   0.0000   0.0000   0.0000   0.3178
  11.200   1.8261   0.02962   0.02343  -0.1590  0.0016  1.0000  -4.2018   0.0000   0.0000   0.0000   0.3170
  11.300   1.8300   0.03016   0.02398  -0.1583  0.0017  1.0000  -4.2397   0.0000   0.0000   0.0000   0.3162
  11.400   1.8335   0.03073   0.02458  -0.1576  0.0017  1.0000  -4.2766   0.0000   0.0000   0.0000   0.3154
  11.500   1.8366   0.03135   0.02522  -0.1568  0.0018  1.0000  -4.3123   0.0000   0.0000   0.0000   0.3147
  11.600   1.8399   0.03196   0.02585  -0.1561  0.0018  1.0000  -4.3489   0.0000   0.0000   0.0000   0.3140
  11.700   1.8433   0.03256   0.02647  -0.1555  0.0019  1.0000  -4.4033   0.0000   0.0000   0.0000   0.3132
  11.800   1.8467   0.03318   0.02711  -0.1548  0.0020  1.0000  -4.4721   0.0000   0.0000   0.0000   0.3125
  11.900   1.8492   0.03387   0.02783  -0.1541  0.0020  1.0000  -4.5368   0.0000   0.0000   0.0000   0.3118
  12.000   1.8517   0.03459   0.02857  -0.1534  0.0021  1.0000  -4.6011   0.0000   0.0000   0.0000   0.3111
  12.100   1.8544   0.03528   0.02929  -0.1527  0.0022  1.0000  -4.6665   0.0000   0.0000   0.0000   0.3104
  12.200   1.8570   0.03599   0.03002  -0.1521  0.0023  1.0000  -4.7318   0.0000   0.0000   0.0000   0.3097
  12.300   1.8587   0.03679   0.03085  -0.1514  0.0024  1.0000  -4.7920   0.0000   0.0000   0.0000   0.3090
  12.400   1.8599   0.03765   0.03175  -0.1507  0.0026  1.0000  -4.8474   0.0000   0.0000   0.0000   0.3084
  12.500   1.8622   0.03843   0.03255  -0.1500  0.0029  1.0000  -4.8983   0.0000   0.0000   0.0000   0.3077
  12.600   1.8790   0.03784   0.03184  -0.1504  0.0039  1.0000  -4.9512   0.0000   0.0000   0.0000   0.3069
  12.700   1.8920   0.03759   0.03155  -0.1505  0.0044  1.0000  -5.0323   0.0000   0.0000   0.0000   0.3062


