xflr5 v6.59

 Calculated polar for: WORTMANN FX 63-137 AIRFOIL

 1 1 Reynolds number fixed          Mach number fixed         

 xtrf =   1.000 (top)        1.000 (bottom)
 Mach =   0.000     Re =     3.900 e 6     Ncrit =   9.000

  alpha     CL        CD       CDp       Cm    Top Xtr Bot Xtr   Cpmin    Chinge    XCp    
 ------- -------- --------- --------- -------- ------- ------- -------- --------- ---------
   0.000   0.9056   0.00964   0.00255  -0.2054  0.1239  0.0187  -1.1357   0.0000   0.0000   0.0000   0.4750
   0.100   0.9170   0.00966   0.00258  -0.2055  0.1236  0.0186  -1.1461   0.0000   0.0000   0.0000   0.4721
   0.200   0.9284   0.00969   0.00260  -0.2055  0.1233  0.0185  -1.1565   0.0000   0.0000   0.0000   0.4692
   0.300   0.9398   0.00971   0.00263  -0.2055  0.1230  0.0183  -1.1669   0.0000   0.0000   0.0000   0.4664
   0.400   0.9511   0.00974   0.00265  -0.2056  0.1227  0.0181  -1.1774   0.0000   0.0000   0.0000   0.4637
   0.500   0.9625   0.00977   0.00268  -0.2056  0.1223  0.0179  -1.1878   0.0000   0.0000   0.0000   0.4610
   0.600   0.9738   0.00980   0.00271  -0.2056  0.1218  0.0178  -1.1982   0.0000   0.0000   0.0000   0.4585
   0.700   0.9850   0.00983   0.00274  -0.2057  0.1212  0.0177  -1.2100   0.0000   0.0000   0.0000   0.4559
   0.800   0.9963   0.00987   0.00278  -0.2057  0.1203  0.0176  -1.2224   0.0000   0.0000   0.0000   0.4534
   0.900   1.0075   0.00990   0.00282  -0.2057  0.1196  0.0177  -1.2347   0.0000   0.0000   0.0000   0.4510
   1.000   1.0177   0.01002   0.00291  -0.2055  0.1093  0.0178  -1.2467   0.0000   0.0000   0.0000   0.4486
   1.100   1.0281   0.01012   0.00298  -0.2054  0.1027  0.0181  -1.2588   0.0000   0.0000   0.0000   0.4463
   1.200   1.0391   0.01017   0.00302  -0.2053  0.1016  0.0221  -1.2711   0.0000   0.0000   0.0000   0.4440
   1.300   1.0500   0.01023   0.00307  -0.2053  0.1005  0.0252  -1.2837   0.0000   0.0000   0.0000   0.4418
   1.400   1.0611   0.01027   0.00314  -0.2053  0.0993  0.0268  -1.2988   0.0000   0.0000   0.0000   0.4396
   1.500   1.0723   0.01031   0.00317  -0.2053  0.0982  0.0350  -1.3141   0.0000   0.0000   0.0000   0.4375
   1.600   1.0833   0.01036   0.00321  -0.2053  0.0970  0.0361  -1.3292   0.0000   0.0000   0.0000   0.4354
   1.700   1.0943   0.01041   0.00325  -0.2053  0.0958  0.0368  -1.3442   0.0000   0.0000   0.0000   0.4333
   1.800   1.1053   0.01046   0.00329  -0.2053  0.0946  0.0373  -1.3592   0.0000   0.0000   0.0000   0.4313
   1.900   1.1163   0.01050   0.00333  -0.2052  0.0932  0.0377  -1.3742   0.0000   0.0000   0.0000   0.4293
   2.000   1.1273   0.01055   0.00337  -0.2052  0.0918  0.0381  -1.3893   0.0000   0.0000   0.0000   0.4274
   2.100   1.1383   0.01059   0.00342  -0.2052  0.0902  0.0384  -1.4045   0.0000   0.0000   0.0000   0.4254
   2.200   1.1493   0.01064   0.00346  -0.2052  0.0888  0.0404  -1.4196   0.0000   0.0000   0.0000   0.4236
   2.300   1.1603   0.01068   0.00351  -0.2052  0.0876  0.0475  -1.4348   0.0000   0.0000   0.0000   0.4217
   2.400   1.1712   0.01073   0.00357  -0.2051  0.0844  0.0497  -1.4500   0.0000   0.0000   0.0000   0.4199
   2.500   1.1820   0.01079   0.00364  -0.2051  0.0834  0.0519  -1.4649   0.0000   0.0000   0.0000   0.4181
   2.600   1.1932   0.01083   0.00369  -0.2051  0.0814  0.0654  -1.4802   0.0000   0.0000   0.0000   0.4164
   2.700   1.2019   0.01107   0.00386  -0.2047  0.0659  0.0689  -1.5043   0.0000   0.0000   0.0000   0.4146
   2.800   1.2120   0.01118   0.00395  -0.2045  0.0619  0.0796  -1.5234   0.0000   0.0000   0.0000   0.4129
   2.900   1.2226   0.01125   0.00402  -0.2044  0.0593  0.0843  -1.5421   0.0000   0.0000   0.0000   0.4113
   3.000   1.2337   0.01130   0.00408  -0.2045  0.0567  0.1003  -1.5610   0.0000   0.0000   0.0000   0.4096
   3.100   1.2444   0.01136   0.00414  -0.2044  0.0544  0.1022  -1.5818   0.0000   0.0000   0.0000   0.4080
   3.200   1.2551   0.01142   0.00420  -0.2043  0.0526  0.1037  -1.6039   0.0000   0.0000   0.0000   0.4064
   3.300   1.2658   0.01148   0.00425  -0.2043  0.0516  0.1102  -1.6266   0.0000   0.0000   0.0000   0.4048
   3.400   1.2766   0.01153   0.00431  -0.2042  0.0513  0.1166  -1.6498   0.0000   0.0000   0.0000   0.4033
   3.500   1.2875   0.01158   0.00438  -0.2042  0.0510  0.1228  -1.6732   0.0000   0.0000   0.0000   0.4018
   3.600   1.2987   0.01161   0.00444  -0.2043  0.0506  0.1437  -1.6972   0.0000   0.0000   0.0000   0.4003
   3.700   1.3093   0.01168   0.00450  -0.2042  0.0501  0.1458  -1.7207   0.0000   0.0000   0.0000   0.3988
   3.800   1.3198   0.01174   0.00457  -0.2041  0.0495  0.1494  -1.7445   0.0000   0.0000   0.0000   0.3974
   3.900   1.3307   0.01178   0.00462  -0.2041  0.0510  0.1485  -1.7688   0.0000   0.0000   0.0000   0.3959
   4.000   1.3415   0.01183   0.00468  -0.2040  0.0508  0.1606  -1.8029   0.0000   0.0000   0.0000   0.3945
   4.100   1.3526   0.01187   0.00475  -0.2041  0.0506  0.1760  -1.8376   0.0000   0.0000   0.0000   0.3932
   4.200   1.3636   0.01192   0.00482  -0.2041  0.0502  0.1942  -1.8724   0.0000   0.0000   0.0000   0.3918
   4.300   1.3741   0.01198   0.00489  -0.2040  0.0493  0.2042  -1.9070   0.0000   0.0000   0.0000   0.3905
   4.400   1.3847   0.01206   0.00499  -0.2040  0.0476  0.2203  -1.9421   0.0000   0.0000   0.0000   0.3891
   4.500   1.3954   0.01214   0.00510  -0.2040  0.0451  0.2480  -1.9774   0.0000   0.0000   0.0000   0.3879
   4.600   1.4055   0.01225   0.00521  -0.2038  0.0425  0.2615  -2.0116   0.0000   0.0000   0.0000   0.3866
   4.700   1.4167   0.01230   0.00531  -0.2040  0.0399  0.2952  -2.0477   0.0000   0.0000   0.0000   0.3854
   4.800   1.4273   0.01236   0.00539  -0.2039  0.0383  0.3088  -2.0829   0.0000   0.0000   0.0000   0.3841
   4.900   1.4383   0.01241   0.00547  -0.2040  0.0381  0.3318  -2.1194   0.0000   0.0000   0.0000   0.3829
   5.000   1.4498   0.01244   0.00556  -0.2042  0.0379  0.3660  -2.1569   0.0000   0.0000   0.0000   0.3817
   5.100   1.4601   0.01251   0.00564  -0.2040  0.0376  0.3763  -2.1929   0.0000   0.0000   0.0000   0.3805
   5.300   1.4824   0.01261   0.00583  -0.2042  0.0371  0.4340  -2.2680   0.0000   0.0000   0.0000   0.3782
   5.400   1.4935   0.01265   0.00594  -0.2044  0.0367  0.4680  -2.3061   0.0000   0.0000   0.0000   0.3771
   5.500   1.5043   0.01271   0.00604  -0.2044  0.0362  0.4948  -2.3440   0.0000   0.0000   0.0000   0.3760
   5.600   1.5140   0.01281   0.00614  -0.2041  0.0353  0.4972  -2.3807   0.0000   0.0000   0.0000   0.3748
   5.700   1.5212   0.01310   0.00636  -0.2034  0.0268  0.4987  -2.4179   0.0000   0.0000   0.0000   0.3735
   5.800   1.5298   0.01328   0.00651  -0.2030  0.0234  0.5000  -2.4466   0.0000   0.0000   0.0000   0.3723
   5.900   1.5385   0.01345   0.00667  -0.2026  0.0201  0.5064  -2.4711   0.0000   0.0000   0.0000   0.3712
   6.000   1.5427   0.01395   0.00714  -0.2013  0.0044  0.5137  -2.5024   0.0000   0.0000   0.0000   0.3698
   6.100   1.5521   0.01406   0.00726  -0.2010  0.0041  0.5181  -2.5391   0.0000   0.0000   0.0000   0.3687
   6.200   1.5613   0.01418   0.00738  -0.2007  0.0038  0.5221  -2.5755   0.0000   0.0000   0.0000   0.3676
   6.300   1.5705   0.01430   0.00750  -0.2004  0.0037  0.5254  -2.6113   0.0000   0.0000   0.0000   0.3664
   6.400   1.5797   0.01442   0.00762  -0.2000  0.0035  0.5281  -2.6472   0.0000   0.0000   0.0000   0.3653
   6.500   1.5887   0.01453   0.00774  -0.1997  0.0033  0.5305  -2.6831   0.0000   0.0000   0.0000   0.3642
   6.600   1.5978   0.01465   0.00785  -0.1993  0.0032  0.5337  -2.7190   0.0000   0.0000   0.0000   0.3631
   6.700   1.6071   0.01476   0.00798  -0.1991  0.0030  0.5455  -2.7553   0.0000   0.0000   0.0000   0.3620
   6.800   1.6163   0.01487   0.00811  -0.1988  0.0028  0.5549  -2.7917   0.0000   0.0000   0.0000   0.3610
   6.900   1.6253   0.01499   0.00823  -0.1984  0.0026  0.5604  -2.8276   0.0000   0.0000   0.0000   0.3599
   7.000   1.6340   0.01511   0.00836  -0.1980  0.0025  0.5627  -2.8632   0.0000   0.0000   0.0000   0.3588
   7.100   1.6426   0.01524   0.00848  -0.1975  0.0023  0.5640  -2.8989   0.0000   0.0000   0.0000   0.3578
   7.200   1.6509   0.01536   0.00861  -0.1971  0.0021  0.5651  -2.9344   0.0000   0.0000   0.0000   0.3567
   7.300   1.6588   0.01549   0.00874  -0.1965  0.0020  0.5688  -2.9691   0.0000   0.0000   0.0000   0.3556
   7.400   1.6658   0.01562   0.00887  -0.1957  0.0018  0.5752  -3.0026   0.0000   0.0000   0.0000   0.3545
   7.500   1.6731   0.01574   0.00901  -0.1950  0.0017  0.5817  -3.0364   0.0000   0.0000   0.0000   0.3534
   7.600   1.6804   0.01587   0.00916  -0.1944  0.0016  0.5880  -3.0706   0.0000   0.0000   0.0000   0.3523
   7.700   1.6877   0.01601   0.00930  -0.1937  0.0014  0.5936  -3.1047   0.0000   0.0000   0.0000   0.3513
   7.900   1.7022   0.01629   0.00961  -0.1924  0.0014  0.6110  -3.1733   0.0000   0.0000   0.0000   0.3492
   8.000   1.7097   0.01643   0.00977  -0.1917  0.0013  0.6205  -3.2081   0.0000   0.0000   0.0000   0.3481
   8.100   1.7168   0.01659   0.00993  -0.1911  0.0013  0.6262  -3.2425   0.0000   0.0000   0.0000   0.3471
   8.200   1.7236   0.01675   0.01011  -0.1903  0.0013  0.6277  -3.2765   0.0000   0.0000   0.0000   0.3460
   8.300   1.7304   0.01691   0.01028  -0.1896  0.0013  0.6333  -3.3105   0.0000   0.0000   0.0000   0.3450
   8.400   1.7376   0.01707   0.01046  -0.1889  0.0013  0.6440  -3.3453   0.0000   0.0000   0.0000   0.3440
   8.500   1.7446   0.01724   0.01065  -0.1883  0.0013  0.6520  -3.3800   0.0000   0.0000   0.0000   0.3430
   8.600   1.7514   0.01741   0.01084  -0.1875  0.0013  0.6581  -3.4142   0.0000   0.0000   0.0000   0.3420
   8.700   1.7581   0.01759   0.01103  -0.1868  0.0013  0.6653  -3.4483   0.0000   0.0000   0.0000   0.3410
   8.800   1.7650   0.01778   0.01124  -0.1862  0.0013  0.6752  -3.4831   0.0000   0.0000   0.0000   0.3400
   8.900   1.7718   0.01797   0.01144  -0.1855  0.0013  0.6816  -3.5177   0.0000   0.0000   0.0000   0.3391
   9.000   1.7784   0.01816   0.01165  -0.1848  0.0013  0.6860  -3.5521   0.0000   0.0000   0.0000   0.3381
   9.100   1.7847   0.01837   0.01187  -0.1840  0.0013  0.6891  -3.5859   0.0000   0.0000   0.0000   0.3371
   9.200   1.7908   0.01859   0.01209  -0.1832  0.0013  0.6912  -3.6196   0.0000   0.0000   0.0000   0.3361
   9.300   1.7971   0.01880   0.01232  -0.1825  0.0013  0.6971  -3.6600   0.0000   0.0000   0.0000   0.3352
   9.400   1.8035   0.01902   0.01255  -0.1817  0.0013  0.7032  -3.7051   0.0000   0.0000   0.0000   0.3342
   9.500   1.8095   0.01926   0.01280  -0.1810  0.0013  0.7085  -3.7496   0.0000   0.0000   0.0000   0.3333
   9.600   1.8151   0.01951   0.01307  -0.1801  0.0013  0.7134  -3.7933   0.0000   0.0000   0.0000   0.3323
   9.700   1.8209   0.01976   0.01334  -0.1793  0.0012  0.7179  -3.8373   0.0000   0.0000   0.0000   0.3314
   9.900   1.8326   0.02029   0.01391  -0.1778  0.0012  0.7324  -3.9261   0.0000   0.0000   0.0000   0.3296
  10.000   1.8381   0.02057   0.01422  -0.1771  0.0012  0.7408  -3.9696   0.0000   0.0000   0.0000   0.3286
  10.100   1.8436   0.02087   0.01453  -0.1763  0.0012  0.7474  -4.0129   0.0000   0.0000   0.0000   0.3277
  10.200   1.8492   0.02116   0.01485  -0.1755  0.0012  0.7549  -4.0567   0.0000   0.0000   0.0000   0.3268
  10.300   1.8549   0.02147   0.01519  -0.1748  0.0012  0.7651  -4.1004   0.0000   0.0000   0.0000   0.3260
  10.400   1.8600   0.02180   0.01555  -0.1740  0.0012  0.7738  -4.1427   0.0000   0.0000   0.0000   0.3251
  10.500   1.8652   0.02214   0.01593  -0.1732  0.0012  0.7843  -4.1845   0.0000   0.0000   0.0000   0.3242
  10.600   1.8707   0.02247   0.01630  -0.1725  0.0012  0.7969  -4.2302   0.0000   0.0000   0.0000   0.3234
  10.700   1.8758   0.02283   0.01669  -0.1718  0.0012  0.8074  -4.2998   0.0000   0.0000   0.0000   0.3225
  10.800   1.8807   0.02321   0.01712  -0.1710  0.0012  0.8213  -4.3675   0.0000   0.0000   0.0000   0.3217
  10.900   1.8856   0.02360   0.01756  -0.1703  0.0012  0.8355  -4.4336   0.0000   0.0000   0.0000   0.3208
  11.200   1.8959   0.02479   0.01905  -0.1674  0.0013  1.0000  -4.5931   0.0000   0.0000   0.0000   0.3182


