xflr5 v6.59

 Calculated polar for: WORTMANN FX 63-137 AIRFOIL

 1 1 Reynolds number fixed          Mach number fixed         

 xtrf =   1.000 (top)        1.000 (bottom)
 Mach =   0.000     Re =     4.800 e 6     Ncrit =   9.000

  alpha     CL        CD       CDp       Cm    Top Xtr Bot Xtr   Cpmin    Chinge    XCp    
 ------- -------- --------- --------- -------- ------- ------- -------- --------- ---------
   0.000   0.9107   0.00932   0.00247  -0.2065  0.1214  0.0182  -1.1395   0.0000   0.0000   0.0000   0.4749
   0.100   0.9221   0.00935   0.00249  -0.2065  0.1206  0.0182  -1.1499   0.0000   0.0000   0.0000   0.4720
   0.200   0.9335   0.00937   0.00252  -0.2066  0.1200  0.0182  -1.1603   0.0000   0.0000   0.0000   0.4692
   0.300   0.9436   0.00951   0.00261  -0.2064  0.1071  0.0181  -1.1698   0.0000   0.0000   0.0000   0.4664
   0.400   0.9545   0.00957   0.00265  -0.2063  0.1026  0.0180  -1.1799   0.0000   0.0000   0.0000   0.4637
   0.500   0.9657   0.00961   0.00269  -0.2063  0.1016  0.0177  -1.1902   0.0000   0.0000   0.0000   0.4611
   0.600   0.9769   0.00966   0.00272  -0.2063  0.1006  0.0175  -1.2015   0.0000   0.0000   0.0000   0.4585
   0.900   1.0103   0.00979   0.00283  -0.2063  0.0978  0.0174  -1.2383   0.0000   0.0000   0.0000   0.4511
   1.200   1.0437   0.00991   0.00294  -0.2063  0.0947  0.0203  -1.2755   0.0000   0.0000   0.0000   0.4441
   1.300   1.0547   0.00995   0.00297  -0.2063  0.0935  0.0229  -1.2903   0.0000   0.0000   0.0000   0.4419
   1.400   1.0659   0.00999   0.00301  -0.2063  0.0923  0.0250  -1.3053   0.0000   0.0000   0.0000   0.4397
   1.500   1.0771   0.01003   0.00307  -0.2063  0.0910  0.0264  -1.3203   0.0000   0.0000   0.0000   0.4376
   1.600   1.0885   0.01005   0.00310  -0.2064  0.0896  0.0345  -1.3356   0.0000   0.0000   0.0000   0.4355
   1.700   1.0996   0.01009   0.00314  -0.2064  0.0884  0.0358  -1.3506   0.0000   0.0000   0.0000   0.4334
   1.800   1.1107   0.01013   0.00318  -0.2064  0.0873  0.0365  -1.3657   0.0000   0.0000   0.0000   0.4314
   1.900   1.1219   0.01017   0.00322  -0.2064  0.0862  0.0371  -1.3807   0.0000   0.0000   0.0000   0.4294
   2.000   1.1330   0.01020   0.00326  -0.2064  0.0853  0.0376  -1.3958   0.0000   0.0000   0.0000   0.4275
   2.100   1.1440   0.01024   0.00329  -0.2064  0.0844  0.0380  -1.4108   0.0000   0.0000   0.0000   0.4256
   2.200   1.1551   0.01028   0.00333  -0.2064  0.0843  0.0388  -1.4258   0.0000   0.0000   0.0000   0.4237
   2.300   1.1662   0.01032   0.00338  -0.2064  0.0841  0.0437  -1.4409   0.0000   0.0000   0.0000   0.4218
   2.400   1.1770   0.01038   0.00344  -0.2063  0.0820  0.0463  -1.4558   0.0000   0.0000   0.0000   0.4200
   2.500   1.1853   0.01065   0.00363  -0.2058  0.0639  0.0482  -1.4751   0.0000   0.0000   0.0000   0.4182
   2.600   1.1955   0.01076   0.00371  -0.2056  0.0589  0.0502  -1.4940   0.0000   0.0000   0.0000   0.4165
   2.700   1.2066   0.01080   0.00377  -0.2057  0.0554  0.0640  -1.5127   0.0000   0.0000   0.0000   0.4148
   2.800   1.2174   0.01086   0.00382  -0.2056  0.0526  0.0672  -1.5313   0.0000   0.0000   0.0000   0.4131
   2.900   1.2283   0.01091   0.00387  -0.2056  0.0515  0.0746  -1.5497   0.0000   0.0000   0.0000   0.4114
   3.000   1.2391   0.01096   0.00393  -0.2055  0.0512  0.0777  -1.5683   0.0000   0.0000   0.0000   0.4098
   3.100   1.2500   0.01101   0.00398  -0.2055  0.0507  0.0807  -1.5914   0.0000   0.0000   0.0000   0.4081
   3.200   1.2608   0.01107   0.00404  -0.2055  0.0502  0.0838  -1.6148   0.0000   0.0000   0.0000   0.4066
   3.300   1.2719   0.01111   0.00410  -0.2055  0.0495  0.1003  -1.6388   0.0000   0.0000   0.0000   0.4050
   3.400   1.2826   0.01117   0.00416  -0.2054  0.0486  0.1018  -1.6626   0.0000   0.0000   0.0000   0.4035
   3.500   1.2931   0.01124   0.00423  -0.2053  0.0476  0.1031  -1.6865   0.0000   0.0000   0.0000   0.4019
   3.600   1.3036   0.01131   0.00430  -0.2052  0.0464  0.1060  -1.7104   0.0000   0.0000   0.0000   0.4004
   3.700   1.3140   0.01139   0.00437  -0.2051  0.0452  0.1116  -1.7344   0.0000   0.0000   0.0000   0.3989
   3.800   1.3245   0.01147   0.00444  -0.2050  0.0440  0.1146  -1.7582   0.0000   0.0000   0.0000   0.3975
   3.900   1.3362   0.01144   0.00445  -0.2051  0.0485  0.1156  -1.7801   0.0000   0.0000   0.0000   0.3961
   4.000   1.3469   0.01149   0.00451  -0.2051  0.0479  0.1217  -1.8142   0.0000   0.0000   0.0000   0.3947
   4.100   1.3578   0.01155   0.00460  -0.2051  0.0465  0.1439  -1.8489   0.0000   0.0000   0.0000   0.3933
   4.200   1.3678   0.01166   0.00469  -0.2049  0.0443  0.1457  -1.8825   0.0000   0.0000   0.0000   0.3919
   4.300   1.3779   0.01175   0.00477  -0.2047  0.0417  0.1521  -1.9162   0.0000   0.0000   0.0000   0.3905
   4.400   1.3885   0.01182   0.00485  -0.2046  0.0390  0.1634  -1.9507   0.0000   0.0000   0.0000   0.3892
   4.500   1.3998   0.01186   0.00493  -0.2047  0.0381  0.1930  -1.9868   0.0000   0.0000   0.0000   0.3879
   4.600   1.4102   0.01193   0.00499  -0.2046  0.0379  0.1951  -2.0219   0.0000   0.0000   0.0000   0.3866
   4.700   1.4208   0.01199   0.00507  -0.2046  0.0377  0.2076  -2.0574   0.0000   0.0000   0.0000   0.3854
   4.800   1.4317   0.01203   0.00514  -0.2046  0.0375  0.2255  -2.0937   0.0000   0.0000   0.0000   0.3841
   4.900   1.4428   0.01208   0.00522  -0.2047  0.0372  0.2492  -2.1305   0.0000   0.0000   0.0000   0.3829
   5.000   1.4536   0.01213   0.00530  -0.2047  0.0369  0.2671  -2.1670   0.0000   0.0000   0.0000   0.3817
   5.100   1.4652   0.01216   0.00538  -0.2049  0.0365  0.3058  -2.2051   0.0000   0.0000   0.0000   0.3806
   5.200   1.4754   0.01224   0.00547  -0.2047  0.0359  0.3142  -2.2415   0.0000   0.0000   0.0000   0.3794
   5.400   1.4951   0.01255   0.00581  -0.2045  0.0245  0.3874  -2.3147   0.0000   0.0000   0.0000   0.3771
   5.500   1.5057   0.01266   0.00599  -0.2045  0.0210  0.4365  -2.3415   0.0000   0.0000   0.0000   0.3760
   5.600   1.5160   0.01276   0.00612  -0.2045  0.0176  0.4626  -2.3735   0.0000   0.0000   0.0000   0.3748
   5.700   1.5259   0.01285   0.00621  -0.2043  0.0167  0.4664  -2.4087   0.0000   0.0000   0.0000   0.3737
   5.800   1.5358   0.01294   0.00630  -0.2041  0.0165  0.4746  -2.4449   0.0000   0.0000   0.0000   0.3725
   5.900   1.5413   0.01338   0.00674  -0.2031  0.0040  0.4906  -2.4839   0.0000   0.0000   0.0000   0.3712
   6.000   1.5507   0.01350   0.00687  -0.2028  0.0036  0.4947  -2.5200   0.0000   0.0000   0.0000   0.3701
   6.100   1.5601   0.01361   0.00698  -0.2025  0.0033  0.4969  -2.5563   0.0000   0.0000   0.0000   0.3689
   6.200   1.5696   0.01372   0.00708  -0.2022  0.0031  0.4985  -2.5925   0.0000   0.0000   0.0000   0.3678
   6.300   1.5790   0.01383   0.00719  -0.2019  0.0030  0.4997  -2.6287   0.0000   0.0000   0.0000   0.3667
   6.400   1.5883   0.01393   0.00730  -0.2016  0.0028  0.5025  -2.6649   0.0000   0.0000   0.0000   0.3656
   6.500   1.5977   0.01404   0.00740  -0.2013  0.0026  0.5080  -2.7011   0.0000   0.0000   0.0000   0.3645
   6.600   1.6071   0.01414   0.00751  -0.2010  0.0025  0.5134  -2.7375   0.0000   0.0000   0.0000   0.3634
   6.700   1.6166   0.01425   0.00763  -0.2008  0.0023  0.5213  -2.7741   0.0000   0.0000   0.0000   0.3624
   6.800   1.6259   0.01435   0.00775  -0.2005  0.0022  0.5290  -2.8107   0.0000   0.0000   0.0000   0.3613
   6.900   1.6350   0.01446   0.00786  -0.2002  0.0020  0.5328  -2.8471   0.0000   0.0000   0.0000   0.3603
   7.000   1.6443   0.01457   0.00798  -0.1999  0.0019  0.5440  -2.8840   0.0000   0.0000   0.0000   0.3592
   7.100   1.6534   0.01468   0.00810  -0.1995  0.0018  0.5496  -2.9207   0.0000   0.0000   0.0000   0.3582
   7.200   1.6622   0.01480   0.00822  -0.1991  0.0017  0.5525  -2.9573   0.0000   0.0000   0.0000   0.3571
   7.300   1.6710   0.01492   0.00834  -0.1987  0.0015  0.5552  -2.9938   0.0000   0.0000   0.0000   0.3561
   7.400   1.6796   0.01504   0.00847  -0.1983  0.0014  0.5578  -3.0303   0.0000   0.0000   0.0000   0.3551
   7.500   1.6881   0.01517   0.00859  -0.1979  0.0014  0.5602  -3.0666   0.0000   0.0000   0.0000   0.3540
   7.600   1.6959   0.01529   0.00872  -0.1973  0.0014  0.5622  -3.1019   0.0000   0.0000   0.0000   0.3530
   7.700   1.7027   0.01542   0.00885  -0.1965  0.0013  0.5637  -3.1353   0.0000   0.0000   0.0000   0.3519
   7.800   1.7095   0.01555   0.00898  -0.1957  0.0013  0.5649  -3.1687   0.0000   0.0000   0.0000   0.3508
   7.900   1.7164   0.01569   0.00912  -0.1949  0.0013  0.5685  -3.2028   0.0000   0.0000   0.0000   0.3497
   8.000   1.7236   0.01583   0.00927  -0.1942  0.0013  0.5760  -3.2371   0.0000   0.0000   0.0000   0.3486
   8.100   1.7307   0.01596   0.00942  -0.1935  0.0013  0.5821  -3.2717   0.0000   0.0000   0.0000   0.3476
   8.200   1.7378   0.01611   0.00959  -0.1928  0.0013  0.5857  -3.3063   0.0000   0.0000   0.0000   0.3466
   8.300   1.7450   0.01625   0.00975  -0.1922  0.0013  0.5925  -3.3413   0.0000   0.0000   0.0000   0.3456
   8.400   1.7521   0.01641   0.00991  -0.1915  0.0013  0.5976  -3.3760   0.0000   0.0000   0.0000   0.3445
   8.500   1.7593   0.01656   0.01009  -0.1908  0.0013  0.6129  -3.4114   0.0000   0.0000   0.0000   0.3435
   8.600   1.7663   0.01672   0.01027  -0.1901  0.0013  0.6234  -3.4462   0.0000   0.0000   0.0000   0.3426
   8.700   1.7730   0.01688   0.01044  -0.1894  0.0013  0.6284  -3.4806   0.0000   0.0000   0.0000   0.3415
   8.800   1.7798   0.01706   0.01063  -0.1887  0.0013  0.6366  -3.5153   0.0000   0.0000   0.0000   0.3406
   8.900   1.7867   0.01723   0.01083  -0.1880  0.0013  0.6472  -3.5503   0.0000   0.0000   0.0000   0.3396
   9.000   1.7934   0.01742   0.01103  -0.1873  0.0013  0.6548  -3.5849   0.0000   0.0000   0.0000   0.3386
   9.100   1.7999   0.01761   0.01123  -0.1865  0.0013  0.6600  -3.6194   0.0000   0.0000   0.0000   0.3376
   9.200   1.8067   0.01780   0.01144  -0.1859  0.0013  0.6697  -3.6605   0.0000   0.0000   0.0000   0.3367
   9.300   1.8134   0.01799   0.01166  -0.1852  0.0013  0.6783  -3.7072   0.0000   0.0000   0.0000   0.3357
   9.400   1.8197   0.01820   0.01188  -0.1844  0.0012  0.6843  -3.7528   0.0000   0.0000   0.0000   0.3348
   9.500   1.8258   0.01842   0.01211  -0.1836  0.0012  0.6881  -3.7982   0.0000   0.0000   0.0000   0.3338
   9.600   1.8318   0.01864   0.01234  -0.1828  0.0012  0.6905  -3.8433   0.0000   0.0000   0.0000   0.3329
   9.700   1.8378   0.01887   0.01258  -0.1820  0.0012  0.6941  -3.8886   0.0000   0.0000   0.0000   0.3319
   9.800   1.8435   0.01911   0.01283  -0.1812  0.0012  0.7007  -3.9336   0.0000   0.0000   0.0000   0.3310
   9.900   1.8492   0.01936   0.01310  -0.1804  0.0012  0.7063  -3.9784   0.0000   0.0000   0.0000   0.3301
  10.000   1.8550   0.01962   0.01337  -0.1796  0.0012  0.7113  -4.0235   0.0000   0.0000   0.0000   0.3291
  10.100   1.8609   0.01987   0.01364  -0.1789  0.0012  0.7159  -4.0691   0.0000   0.0000   0.0000   0.3282
  10.200   1.8665   0.02014   0.01393  -0.1781  0.0012  0.7200  -4.1138   0.0000   0.0000   0.0000   0.3273
  10.300   1.8719   0.02043   0.01423  -0.1773  0.0012  0.7284  -4.1642   0.0000   0.0000   0.0000   0.3264
  10.400   1.8776   0.02072   0.01456  -0.1765  0.0012  0.7379  -4.2451   0.0000   0.0000   0.0000   0.3256
  10.500   1.8832   0.02102   0.01487  -0.1758  0.0012  0.7454  -4.3276   0.0000   0.0000   0.0000   0.3247
  10.600   1.8884   0.02133   0.01521  -0.1750  0.0012  0.7508  -4.4076   0.0000   0.0000   0.0000   0.3238
  10.700   1.8935   0.02166   0.01557  -0.1742  0.0012  0.7617  -4.4864   0.0000   0.0000   0.0000   0.3229
  10.800   1.8987   0.02200   0.01593  -0.1734  0.0012  0.7711  -4.5640   0.0000   0.0000   0.0000   0.3221
  11.400   1.9268   0.02438   0.01857  -0.1687  0.0012  0.8494  -4.9617   0.0000   0.0000   0.0000   0.3171
  11.500   1.9303   0.02491   0.01920  -0.1679  0.0012  0.8793  -5.0052   0.0000   0.0000   0.0000   0.3163
  15.000   2.0145   0.04962   0.04473  -0.1444  0.0011  1.0000  -8.0175   0.0000   0.0000   0.0000   0.2930
  15.100   2.0154   0.05065   0.04577  -0.1440  0.0010  1.0000  -8.1084   0.0000   0.0000   0.0000   0.2925
  15.200   2.0130   0.05209   0.04725  -0.1435  0.0010  1.0000  -8.1584   0.0000   0.0000   0.0000   0.2921
  15.300   2.0126   0.05330   0.04849  -0.1431  0.0010  1.0000  -8.2218   0.0000   0.0000   0.0000   0.2916
  15.400   2.0127   0.05446   0.04968  -0.1426  0.0010  1.0000  -8.2881   0.0000   0.0000   0.0000   0.2912
  15.500   2.0127   0.05563   0.05088  -0.1422  0.0010  1.0000  -8.3543   0.0000   0.0000   0.0000   0.2907
  15.600   2.0101   0.05717   0.05246  -0.1418  0.0010  1.0000  -8.4004   0.0000   0.0000   0.0000   0.2903
  15.700   2.0072   0.05876   0.05410  -0.1414  0.0010  1.0000  -8.4445   0.0000   0.0000   0.0000   0.2900
  15.800   2.0062   0.06010   0.05547  -0.1411  0.0010  1.0000  -8.5019   0.0000   0.0000   0.0000   0.2896
  15.900   2.0055   0.06140   0.05681  -0.1407  0.0010  1.0000  -8.5610   0.0000   0.0000   0.0000   0.2891
  16.000   2.0046   0.06272   0.05816  -0.1404  0.0010  1.0000  -8.6190   0.0000   0.0000   0.0000   0.2887
  16.100   2.0027   0.06420   0.05969  -0.1401  0.0010  1.0000  -8.6683   0.0000   0.0000   0.0000   0.2884
  16.200   1.9968   0.06628   0.06182  -0.1398  0.0010  1.0000  -8.6865   0.0000   0.0000   0.0000   0.2882
  16.300   1.9943   0.06788   0.06346  -0.1396  0.0010  1.0000  -8.7299   0.0000   0.0000   0.0000   0.2879
  16.400   1.9922   0.06942   0.06503  -0.1394  0.0010  1.0000  -8.7758   0.0000   0.0000   0.0000   0.2876
  16.500   1.9899   0.07098   0.06664  -0.1391  0.0010  1.0000  -8.8188   0.0000   0.0000   0.0000   0.2873
  16.600   1.9821   0.07340   0.06911  -0.1391  0.0010  1.0000  -8.8179   0.0000   0.0000   0.0000   0.2873
  16.700   1.9393   0.08053   0.07649  -0.1388  0.0011  1.0000  -8.3153   0.0000   0.0000   0.0000   0.2883
  16.800   1.9347   0.08255   0.07854  -0.1389  0.0011  1.0000  -8.3635   0.0000   0.0000   0.0000   0.2883
  16.900   1.9338   0.08400   0.08001  -0.1390  0.0011  1.0000  -8.4406   0.0000   0.0000   0.0000   0.2881
  17.000   1.9345   0.08520   0.08124  -0.1389  0.0011  1.0000  -8.5344   0.0000   0.0000   0.0000   0.2878


