xflr5 v6.59

 Calculated polar for: WORTMANN FX 63-137 AIRFOIL

 1 1 Reynolds number fixed          Mach number fixed         

 xtrf =   1.000 (top)        1.000 (bottom)
 Mach =   0.000     Re =     4.700 e 6     Ncrit =   9.000

  alpha     CL        CD       CDp       Cm    Top Xtr Bot Xtr   Cpmin    Chinge    XCp    
 ------- -------- --------- --------- -------- ------- ------- -------- --------- ---------
   0.000   0.9103   0.00935   0.00247  -0.2064  0.1217  0.0182  -1.1391   0.0000   0.0000   0.0000   0.4749
   0.100   0.9216   0.00938   0.00250  -0.2064  0.1212  0.0183  -1.1495   0.0000   0.0000   0.0000   0.4720
   0.200   0.9330   0.00941   0.00252  -0.2065  0.1203  0.0182  -1.1599   0.0000   0.0000   0.0000   0.4692
   0.300   0.9443   0.00943   0.00255  -0.2065  0.1199  0.0181  -1.1704   0.0000   0.0000   0.0000   0.4664
   0.400   0.9541   0.00960   0.00266  -0.2062  0.1033  0.0180  -1.1796   0.0000   0.0000   0.0000   0.4637
   0.500   0.9653   0.00964   0.00269  -0.2062  0.1023  0.0177  -1.1899   0.0000   0.0000   0.0000   0.4611
   0.600   0.9765   0.00968   0.00273  -0.2062  0.1012  0.0175  -1.2011   0.0000   0.0000   0.0000   0.4585
   0.900   1.0098   0.00981   0.00284  -0.2062  0.0984  0.0174  -1.2379   0.0000   0.0000   0.0000   0.4511
   1.200   1.0432   0.00994   0.00295  -0.2062  0.0954  0.0205  -1.2749   0.0000   0.0000   0.0000   0.4441
   1.300   1.0541   0.00999   0.00298  -0.2062  0.0942  0.0233  -1.2897   0.0000   0.0000   0.0000   0.4419
   1.400   1.0654   0.01002   0.00302  -0.2062  0.0930  0.0251  -1.3047   0.0000   0.0000   0.0000   0.4397
   1.500   1.0765   0.01006   0.00308  -0.2062  0.0917  0.0265  -1.3197   0.0000   0.0000   0.0000   0.4375
   1.600   1.0879   0.01009   0.00311  -0.2063  0.0904  0.0348  -1.3349   0.0000   0.0000   0.0000   0.4355
   1.700   1.0991   0.01012   0.00315  -0.2063  0.0891  0.0359  -1.3500   0.0000   0.0000   0.0000   0.4334
   1.800   1.1102   0.01016   0.00319  -0.2063  0.0878  0.0366  -1.3651   0.0000   0.0000   0.0000   0.4314
   1.900   1.1213   0.01020   0.00323  -0.2063  0.0868  0.0372  -1.3801   0.0000   0.0000   0.0000   0.4294
   2.000   1.1324   0.01024   0.00327  -0.2063  0.0858  0.0376  -1.3952   0.0000   0.0000   0.0000   0.4275
   2.100   1.1435   0.01028   0.00331  -0.2063  0.0849  0.0380  -1.4102   0.0000   0.0000   0.0000   0.4255
   2.200   1.1545   0.01032   0.00335  -0.2063  0.0844  0.0389  -1.4253   0.0000   0.0000   0.0000   0.4237
   2.300   1.1656   0.01035   0.00339  -0.2063  0.0842  0.0441  -1.4403   0.0000   0.0000   0.0000   0.4218
   2.400   1.1764   0.01041   0.00345  -0.2062  0.0825  0.0466  -1.4553   0.0000   0.0000   0.0000   0.4200
   2.500   1.1850   0.01066   0.00363  -0.2057  0.0655  0.0485  -1.4741   0.0000   0.0000   0.0000   0.4182
   2.600   1.1949   0.01079   0.00372  -0.2055  0.0599  0.0505  -1.4933   0.0000   0.0000   0.0000   0.4165
   2.700   1.2060   0.01084   0.00378  -0.2055  0.0564  0.0646  -1.5120   0.0000   0.0000   0.0000   0.4147
   2.800   1.2168   0.01089   0.00384  -0.2055  0.0534  0.0676  -1.5305   0.0000   0.0000   0.0000   0.4131
   2.900   1.2277   0.01095   0.00389  -0.2055  0.0517  0.0756  -1.5490   0.0000   0.0000   0.0000   0.4114
   3.000   1.2385   0.01100   0.00394  -0.2054  0.0513  0.0786  -1.5674   0.0000   0.0000   0.0000   0.4097
   3.100   1.2494   0.01105   0.00400  -0.2054  0.0509  0.0817  -1.5903   0.0000   0.0000   0.0000   0.4081
   3.200   1.2602   0.01110   0.00406  -0.2053  0.0505  0.0856  -1.6136   0.0000   0.0000   0.0000   0.4065
   3.300   1.2713   0.01114   0.00411  -0.2054  0.0499  0.1006  -1.6374   0.0000   0.0000   0.0000   0.4050
   3.400   1.2820   0.01120   0.00418  -0.2053  0.0491  0.1023  -1.6611   0.0000   0.0000   0.0000   0.4034
   3.500   1.2926   0.01127   0.00424  -0.2052  0.0481  0.1035  -1.6850   0.0000   0.0000   0.0000   0.4019
   3.600   1.3031   0.01134   0.00431  -0.2051  0.0470  0.1085  -1.7090   0.0000   0.0000   0.0000   0.4004
   3.700   1.3136   0.01142   0.00438  -0.2050  0.0458  0.1138  -1.7330   0.0000   0.0000   0.0000   0.3989
   3.800   1.3240   0.01149   0.00445  -0.2049  0.0446  0.1170  -1.7570   0.0000   0.0000   0.0000   0.3975
   3.900   1.3357   0.01147   0.00446  -0.2050  0.0489  0.1178  -1.7790   0.0000   0.0000   0.0000   0.3961
   4.000   1.3464   0.01152   0.00453  -0.2050  0.0484  0.1240  -1.8131   0.0000   0.0000   0.0000   0.3947
   4.100   1.3573   0.01158   0.00461  -0.2050  0.0472  0.1441  -1.8478   0.0000   0.0000   0.0000   0.3933
   4.200   1.3674   0.01168   0.00470  -0.2048  0.0452  0.1465  -1.8815   0.0000   0.0000   0.0000   0.3919
   4.300   1.3775   0.01178   0.00479  -0.2046  0.0426  0.1563  -1.9152   0.0000   0.0000   0.0000   0.3905
   4.400   1.3880   0.01186   0.00487  -0.2045  0.0398  0.1674  -1.9497   0.0000   0.0000   0.0000   0.3892
   4.500   1.3991   0.01190   0.00495  -0.2046  0.0382  0.1933  -1.9853   0.0000   0.0000   0.0000   0.3879
   4.600   1.4095   0.01197   0.00502  -0.2045  0.0380  0.1972  -2.0205   0.0000   0.0000   0.0000   0.3866
   4.700   1.4203   0.01202   0.00509  -0.2045  0.0378  0.2134  -2.0563   0.0000   0.0000   0.0000   0.3853
   4.800   1.4318   0.01205   0.00517  -0.2047  0.0375  0.2476  -2.0934   0.0000   0.0000   0.0000   0.3842
   4.900   1.4422   0.01212   0.00524  -0.2045  0.0373  0.2531  -2.1291   0.0000   0.0000   0.0000   0.3829
   5.000   1.4532   0.01216   0.00532  -0.2046  0.0370  0.2751  -2.1659   0.0000   0.0000   0.0000   0.3817
   5.100   1.4645   0.01220   0.00541  -0.2047  0.0366  0.3064  -2.2035   0.0000   0.0000   0.0000   0.3805
   5.200   1.4750   0.01227   0.00549  -0.2047  0.0361  0.3231  -2.2403   0.0000   0.0000   0.0000   0.3794
   5.300   1.4866   0.01230   0.00559  -0.2049  0.0355  0.3660  -2.2792   0.0000   0.0000   0.0000   0.3783
   5.500   1.5055   0.01267   0.00600  -0.2045  0.0222  0.4461  -2.3444   0.0000   0.0000   0.0000   0.3760
   5.600   1.5154   0.01279   0.00614  -0.2044  0.0189  0.4651  -2.3734   0.0000   0.0000   0.0000   0.3748
   5.700   1.5252   0.01289   0.00624  -0.2041  0.0170  0.4695  -2.4075   0.0000   0.0000   0.0000   0.3737
   5.800   1.5352   0.01298   0.00634  -0.2040  0.0165  0.4808  -2.4437   0.0000   0.0000   0.0000   0.3725
   5.900   1.5406   0.01342   0.00677  -0.2029  0.0042  0.4934  -2.4821   0.0000   0.0000   0.0000   0.3712
   6.000   1.5499   0.01354   0.00689  -0.2026  0.0036  0.4962  -2.5184   0.0000   0.0000   0.0000   0.3701
   6.100   1.5593   0.01366   0.00701  -0.2023  0.0034  0.4979  -2.5545   0.0000   0.0000   0.0000   0.3689
   6.200   1.5687   0.01377   0.00711  -0.2020  0.0032  0.4993  -2.5907   0.0000   0.0000   0.0000   0.3678
   6.300   1.5781   0.01387   0.00722  -0.2017  0.0030  0.5008  -2.6269   0.0000   0.0000   0.0000   0.3667
   6.400   1.5875   0.01398   0.00733  -0.2014  0.0029  0.5059  -2.6631   0.0000   0.0000   0.0000   0.3656
   6.500   1.5969   0.01409   0.00744  -0.2012  0.0027  0.5114  -2.6995   0.0000   0.0000   0.0000   0.3645
   6.600   1.6063   0.01419   0.00755  -0.2009  0.0025  0.5165  -2.7359   0.0000   0.0000   0.0000   0.3634
   6.700   1.6157   0.01430   0.00767  -0.2006  0.0024  0.5242  -2.7724   0.0000   0.0000   0.0000   0.3623
   6.800   1.6249   0.01440   0.00778  -0.2003  0.0022  0.5304  -2.8088   0.0000   0.0000   0.0000   0.3613
   6.900   1.6340   0.01452   0.00790  -0.2000  0.0021  0.5361  -2.8452   0.0000   0.0000   0.0000   0.3602
   7.000   1.6433   0.01462   0.00802  -0.1997  0.0019  0.5471  -2.8821   0.0000   0.0000   0.0000   0.3592
   7.100   1.6523   0.01474   0.00814  -0.1993  0.0018  0.5518  -2.9187   0.0000   0.0000   0.0000   0.3581
   7.200   1.6612   0.01486   0.00826  -0.1990  0.0017  0.5545  -2.9552   0.0000   0.0000   0.0000   0.3571
   7.300   1.6699   0.01498   0.00838  -0.1985  0.0016  0.5570  -2.9916   0.0000   0.0000   0.0000   0.3561
   7.400   1.6785   0.01510   0.00851  -0.1981  0.0015  0.5594  -3.0280   0.0000   0.0000   0.0000   0.3550
   7.500   1.6868   0.01523   0.00863  -0.1976  0.0014  0.5615  -3.0640   0.0000   0.0000   0.0000   0.3540
   7.600   1.6943   0.01535   0.00876  -0.1970  0.0014  0.5632  -3.0987   0.0000   0.0000   0.0000   0.3529
   7.700   1.7010   0.01548   0.00889  -0.1962  0.0013  0.5645  -3.1318   0.0000   0.0000   0.0000   0.3518
   7.800   1.7078   0.01561   0.00903  -0.1954  0.0013  0.5663  -3.1655   0.0000   0.0000   0.0000   0.3507
   7.900   1.7150   0.01575   0.00917  -0.1947  0.0013  0.5731  -3.1997   0.0000   0.0000   0.0000   0.3496
   8.000   1.7222   0.01588   0.00932  -0.1940  0.0013  0.5805  -3.2342   0.0000   0.0000   0.0000   0.3486
   8.100   1.7293   0.01602   0.00947  -0.1933  0.0013  0.5864  -3.2688   0.0000   0.0000   0.0000   0.3476
   8.200   1.7364   0.01617   0.00964  -0.1926  0.0013  0.5895  -3.3034   0.0000   0.0000   0.0000   0.3465
   8.300   1.7435   0.01632   0.00980  -0.1919  0.0013  0.5955  -3.3382   0.0000   0.0000   0.0000   0.3455
   8.400   1.7507   0.01647   0.00997  -0.1912  0.0013  0.6057  -3.3731   0.0000   0.0000   0.0000   0.3445
   8.500   1.7580   0.01662   0.01014  -0.1906  0.0013  0.6188  -3.4084   0.0000   0.0000   0.0000   0.3435
   8.600   1.7648   0.01678   0.01032  -0.1899  0.0013  0.6263  -3.4429   0.0000   0.0000   0.0000   0.3425
   8.700   1.7715   0.01695   0.01050  -0.1891  0.0013  0.6302  -3.4773   0.0000   0.0000   0.0000   0.3415
   8.800   1.7785   0.01712   0.01069  -0.1884  0.0013  0.6422  -3.5123   0.0000   0.0000   0.0000   0.3405
   8.900   1.7853   0.01730   0.01089  -0.1878  0.0013  0.6510  -3.5471   0.0000   0.0000   0.0000   0.3395
   9.000   1.7918   0.01749   0.01109  -0.1870  0.0013  0.6575  -3.5816   0.0000   0.0000   0.0000   0.3386
   9.100   1.7984   0.01768   0.01129  -0.1863  0.0013  0.6638  -3.6162   0.0000   0.0000   0.0000   0.3376
   9.200   1.8053   0.01787   0.01150  -0.1856  0.0013  0.6742  -3.6566   0.0000   0.0000   0.0000   0.3366
   9.300   1.8119   0.01807   0.01172  -0.1849  0.0013  0.6815  -3.7027   0.0000   0.0000   0.0000   0.3357
   9.400   1.8181   0.01828   0.01194  -0.1841  0.0012  0.6863  -3.7481   0.0000   0.0000   0.0000   0.3347
   9.500   1.8241   0.01850   0.01217  -0.1833  0.0012  0.6893  -3.7933   0.0000   0.0000   0.0000   0.3338
   9.600   1.8301   0.01873   0.01241  -0.1825  0.0012  0.6913  -3.8383   0.0000   0.0000   0.0000   0.3328
   9.700   1.8361   0.01896   0.01265  -0.1818  0.0012  0.6971  -3.8837   0.0000   0.0000   0.0000   0.3319
   9.800   1.8418   0.01920   0.01291  -0.1810  0.0012  0.7033  -3.9284   0.0000   0.0000   0.0000   0.3309
   9.900   1.8475   0.01945   0.01318  -0.1801  0.0012  0.7086  -3.9732   0.0000   0.0000   0.0000   0.3300
  10.000   1.8533   0.01971   0.01345  -0.1794  0.0012  0.7135  -4.0183   0.0000   0.0000   0.0000   0.3291
  10.100   1.8592   0.01997   0.01372  -0.1786  0.0012  0.7179  -4.0636   0.0000   0.0000   0.0000   0.3282
  10.300   1.8703   0.02053   0.01433  -0.1770  0.0012  0.7329  -4.1528   0.0000   0.0000   0.0000   0.3264
  10.400   1.8758   0.02083   0.01466  -0.1763  0.0012  0.7415  -4.2304   0.0000   0.0000   0.0000   0.3255
  10.500   1.8814   0.02112   0.01497  -0.1755  0.0012  0.7479  -4.3113   0.0000   0.0000   0.0000   0.3246
  10.600   1.8865   0.02145   0.01532  -0.1747  0.0012  0.7558  -4.3900   0.0000   0.0000   0.0000   0.3237
  10.700   1.8917   0.02178   0.01568  -0.1739  0.0012  0.7661  -4.4679   0.0000   0.0000   0.0000   0.3229
  10.800   1.8969   0.02212   0.01605  -0.1732  0.0012  0.7747  -4.5440   0.0000   0.0000   0.0000   0.3220
  10.900   1.9023   0.02246   0.01642  -0.1724  0.0012  0.7861  -4.6191   0.0000   0.0000   0.0000   0.3212
  11.000   1.9070   0.02284   0.01684  -0.1717  0.0012  0.7986  -4.6892   0.0000   0.0000   0.0000   0.3203
  11.100   1.9116   0.02323   0.01727  -0.1708  0.0012  0.8096  -4.7559   0.0000   0.0000   0.0000   0.3195
  11.200   1.9164   0.02363   0.01772  -0.1701  0.0012  0.8236  -4.8211   0.0000   0.0000   0.0000   0.3187
  11.300   1.9211   0.02405   0.01820  -0.1693  0.0012  0.8389  -4.8817   0.0000   0.0000   0.0000   0.3179
  11.400   1.9246   0.02454   0.01876  -0.1685  0.0012  0.8596  -4.9325   0.0000   0.0000   0.0000   0.3170
  11.500   1.9286   0.02507   0.01943  -0.1677  0.0012  0.9254  -4.9705   0.0000   0.0000   0.0000   0.3163
  15.400   1.9997   0.05600   0.05130  -0.1420  0.0011  1.0000  -8.0861   0.0000   0.0000   0.0000   0.2913
  15.500   1.9950   0.05781   0.05316  -0.1416  0.0011  1.0000  -8.1126   0.0000   0.0000   0.0000   0.2910
  15.600   1.9922   0.05939   0.05478  -0.1412  0.0011  1.0000  -8.1508   0.0000   0.0000   0.0000   0.2906
  15.700   1.9904   0.06084   0.05627  -0.1408  0.0011  1.0000  -8.1934   0.0000   0.0000   0.0000   0.2902
  15.800   1.9883   0.06232   0.05780  -0.1404  0.0011  1.0000  -8.2326   0.0000   0.0000   0.0000   0.2899
  15.900   1.9855   0.06391   0.05943  -0.1401  0.0011  1.0000  -8.2639   0.0000   0.0000   0.0000   0.2895
  16.000   1.9771   0.06633   0.06191  -0.1398  0.0011  1.0000  -8.2510   0.0000   0.0000   0.0000   0.2894
  16.100   1.9698   0.06858   0.06422  -0.1395  0.0011  1.0000  -8.2275   0.0000   0.0000   0.0000   0.2892


