xflr5 v6.59

 Calculated polar for: WORTMANN FX 63-137 AIRFOIL

 1 1 Reynolds number fixed          Mach number fixed         

 xtrf =   1.000 (top)        1.000 (bottom)
 Mach =   0.000     Re =     3.200 e 6     Ncrit =   9.000

  alpha     CL        CD       CDp       Cm    Top Xtr Bot Xtr   Cpmin    Chinge    XCp    
 ------- -------- --------- --------- -------- ------- ------- -------- --------- ---------
   0.000   0.9011   0.00991   0.00263  -0.2044  0.1370  0.0189  -1.1322   0.0000   0.0000   0.0000   0.4750
   0.100   0.9123   0.00996   0.00266  -0.2044  0.1351  0.0187  -1.1425   0.0000   0.0000   0.0000   0.4721
   0.200   0.9235   0.00999   0.00268  -0.2045  0.1331  0.0186  -1.1528   0.0000   0.0000   0.0000   0.4693
   0.300   0.9348   0.01003   0.00271  -0.2045  0.1308  0.0184  -1.1632   0.0000   0.0000   0.0000   0.4665
   0.400   0.9460   0.01006   0.00274  -0.2045  0.1285  0.0183  -1.1735   0.0000   0.0000   0.0000   0.4637
   0.500   0.9573   0.01010   0.00278  -0.2045  0.1263  0.0182  -1.1839   0.0000   0.0000   0.0000   0.4611
   0.600   0.9685   0.01013   0.00281  -0.2045  0.1246  0.0181  -1.1942   0.0000   0.0000   0.0000   0.4585
   0.700   0.9798   0.01016   0.00284  -0.2046  0.1240  0.0181  -1.2052   0.0000   0.0000   0.0000   0.4559
   0.800   0.9911   0.01019   0.00287  -0.2046  0.1237  0.0180  -1.2175   0.0000   0.0000   0.0000   0.4534
   0.900   1.0023   0.01022   0.00291  -0.2046  0.1234  0.0183  -1.2298   0.0000   0.0000   0.0000   0.4510
   1.000   1.0135   0.01025   0.00295  -0.2046  0.1231  0.0186  -1.2422   0.0000   0.0000   0.0000   0.4486
   1.100   1.0247   0.01028   0.00298  -0.2046  0.1227  0.0212  -1.2545   0.0000   0.0000   0.0000   0.4462
   1.200   1.0358   0.01032   0.00302  -0.2046  0.1222  0.0254  -1.2668   0.0000   0.0000   0.0000   0.4440
   1.300   1.0474   0.01034   0.00308  -0.2047  0.1217  0.0337  -1.2794   0.0000   0.0000   0.0000   0.4417
   1.400   1.0586   0.01037   0.00311  -0.2047  0.1209  0.0355  -1.2919   0.0000   0.0000   0.0000   0.4395
   1.500   1.0697   0.01042   0.00315  -0.2047  0.1198  0.0365  -1.3043   0.0000   0.0000   0.0000   0.4374
   1.600   1.0807   0.01046   0.00319  -0.2047  0.1188  0.0371  -1.3178   0.0000   0.0000   0.0000   0.4353
   1.700   1.0899   0.01066   0.00333  -0.2044  0.1030  0.0376  -1.3370   0.0000   0.0000   0.0000   0.4332
   1.800   1.1008   0.01071   0.00338  -0.2043  0.1017  0.0380  -1.3519   0.0000   0.0000   0.0000   0.4312
   1.900   1.1116   0.01077   0.00343  -0.2043  0.1005  0.0383  -1.3670   0.0000   0.0000   0.0000   0.4292
   2.000   1.1224   0.01084   0.00348  -0.2042  0.0992  0.0390  -1.3822   0.0000   0.0000   0.0000   0.4272
   2.100   1.1331   0.01090   0.00353  -0.2041  0.0979  0.0407  -1.3974   0.0000   0.0000   0.0000   0.4253
   2.200   1.1439   0.01096   0.00358  -0.2041  0.0966  0.0433  -1.4126   0.0000   0.0000   0.0000   0.4234
   2.300   1.1548   0.01101   0.00365  -0.2041  0.0954  0.0510  -1.4278   0.0000   0.0000   0.0000   0.4216
   2.400   1.1661   0.01105   0.00369  -0.2041  0.0939  0.0635  -1.4432   0.0000   0.0000   0.0000   0.4198
   2.500   1.1767   0.01112   0.00375  -0.2040  0.0894  0.0661  -1.4588   0.0000   0.0000   0.0000   0.4180
   2.600   1.1874   0.01118   0.00382  -0.2040  0.0843  0.0736  -1.4742   0.0000   0.0000   0.0000   0.4162
   2.700   1.1990   0.01120   0.00388  -0.2041  0.0836  0.0995  -1.4897   0.0000   0.0000   0.0000   0.4146
   2.800   1.2098   0.01126   0.00394  -0.2041  0.0824  0.1029  -1.5138   0.0000   0.0000   0.0000   0.4129
   2.900   1.2204   0.01133   0.00400  -0.2040  0.0803  0.1067  -1.5378   0.0000   0.0000   0.0000   0.4112
   3.000   1.2291   0.01156   0.00418  -0.2035  0.0660  0.1135  -1.5627   0.0000   0.0000   0.0000   0.4095
   3.100   1.2394   0.01165   0.00426  -0.2034  0.0632  0.1202  -1.5813   0.0000   0.0000   0.0000   0.4079
   3.200   1.2504   0.01171   0.00434  -0.2035  0.0610  0.1433  -1.6007   0.0000   0.0000   0.0000   0.4063
   3.300   1.2609   0.01179   0.00441  -0.2034  0.0589  0.1454  -1.6205   0.0000   0.0000   0.0000   0.4047
   3.400   1.2714   0.01186   0.00447  -0.2033  0.0568  0.1527  -1.6415   0.0000   0.0000   0.0000   0.4032
   3.500   1.2823   0.01191   0.00454  -0.2033  0.0547  0.1645  -1.6636   0.0000   0.0000   0.0000   0.4017
   3.600   1.2938   0.01194   0.00461  -0.2034  0.0529  0.1926  -1.6867   0.0000   0.0000   0.0000   0.4002
   3.700   1.3043   0.01201   0.00468  -0.2033  0.0517  0.1951  -1.7090   0.0000   0.0000   0.0000   0.3988
   3.800   1.3150   0.01206   0.00475  -0.2033  0.0515  0.2050  -1.7325   0.0000   0.0000   0.0000   0.3973
   3.900   1.3256   0.01212   0.00481  -0.2032  0.0528  0.2020  -1.7584   0.0000   0.0000   0.0000   0.3958
   4.000   1.3367   0.01216   0.00488  -0.2032  0.0522  0.2187  -1.7926   0.0000   0.0000   0.0000   0.3945
   4.100   1.3482   0.01218   0.00495  -0.2034  0.0517  0.2478  -1.8276   0.0000   0.0000   0.0000   0.3931
   4.200   1.3590   0.01224   0.00502  -0.2033  0.0515  0.2616  -1.8621   0.0000   0.0000   0.0000   0.3918
   4.300   1.3709   0.01225   0.00510  -0.2036  0.0513  0.2983  -1.8983   0.0000   0.0000   0.0000   0.3905
   4.400   1.3815   0.01231   0.00518  -0.2036  0.0510  0.3093  -1.9330   0.0000   0.0000   0.0000   0.3892
   4.500   1.3926   0.01236   0.00527  -0.2036  0.0505  0.3325  -1.9687   0.0000   0.0000   0.0000   0.3879
   4.600   1.4039   0.01240   0.00536  -0.2038  0.0495  0.3657  -2.0051   0.0000   0.0000   0.0000   0.3867
   4.700   1.4140   0.01249   0.00546  -0.2036  0.0478  0.3756  -2.0401   0.0000   0.0000   0.0000   0.3854
   4.800   1.4244   0.01259   0.00559  -0.2036  0.0455  0.3953  -2.0756   0.0000   0.0000   0.0000   0.3841
   4.900   1.4344   0.01270   0.00571  -0.2034  0.0432  0.4112  -2.1105   0.0000   0.0000   0.0000   0.3829
   5.000   1.4448   0.01279   0.00582  -0.2034  0.0411  0.4300  -2.1459   0.0000   0.0000   0.0000   0.3817
   5.100   1.4549   0.01287   0.00591  -0.2032  0.0396  0.4392  -2.1809   0.0000   0.0000   0.0000   0.3804
   5.200   1.4658   0.01293   0.00602  -0.2032  0.0383  0.4657  -2.2173   0.0000   0.0000   0.0000   0.3793
   5.300   1.4767   0.01299   0.00613  -0.2033  0.0380  0.4951  -2.2545   0.0000   0.0000   0.0000   0.3781
   5.400   1.4868   0.01307   0.00622  -0.2031  0.0378  0.5055  -2.2907   0.0000   0.0000   0.0000   0.3769
   5.500   1.4970   0.01315   0.00631  -0.2030  0.0376  0.5143  -2.3272   0.0000   0.0000   0.0000   0.3757
   5.600   1.5069   0.01323   0.00640  -0.2028  0.0373  0.5185  -2.3635   0.0000   0.0000   0.0000   0.3746
   5.700   1.5168   0.01332   0.00650  -0.2026  0.0369  0.5224  -2.3999   0.0000   0.0000   0.0000   0.3734
   5.800   1.5265   0.01342   0.00659  -0.2024  0.0365  0.5258  -2.4365   0.0000   0.0000   0.0000   0.3722
   5.900   1.5361   0.01352   0.00669  -0.2021  0.0358  0.5289  -2.4732   0.0000   0.0000   0.0000   0.3711
   6.000   1.5395   0.01405   0.00711  -0.2008  0.0187  0.5314  -2.4889   0.0000   0.0000   0.0000   0.3697
   6.100   1.5486   0.01418   0.00723  -0.2004  0.0165  0.5327  -2.5215   0.0000   0.0000   0.0000   0.3686
   6.300   1.5617   0.01477   0.00780  -0.1987  0.0044  0.5413  -2.5913   0.0000   0.0000   0.0000   0.3661
   6.400   1.5708   0.01490   0.00793  -0.1984  0.0042  0.5485  -2.6276   0.0000   0.0000   0.0000   0.3650
   6.500   1.5798   0.01502   0.00807  -0.1981  0.0040  0.5561  -2.6640   0.0000   0.0000   0.0000   0.3639
   6.600   1.5886   0.01515   0.00820  -0.1977  0.0038  0.5618  -2.7002   0.0000   0.0000   0.0000   0.3628
   6.700   1.5973   0.01528   0.00833  -0.1973  0.0037  0.5650  -2.7356   0.0000   0.0000   0.0000   0.3617
   6.800   1.6060   0.01540   0.00846  -0.1969  0.0035  0.5726  -2.7712   0.0000   0.0000   0.0000   0.3606
   6.900   1.6147   0.01552   0.00860  -0.1965  0.0034  0.5793  -2.8067   0.0000   0.0000   0.0000   0.3595
   7.000   1.6228   0.01565   0.00873  -0.1959  0.0032  0.5845  -2.8412   0.0000   0.0000   0.0000   0.3584
   7.100   1.6302   0.01577   0.00886  -0.1953  0.0030  0.5895  -2.8743   0.0000   0.0000   0.0000   0.3573
   7.200   1.6373   0.01590   0.00900  -0.1945  0.0028  0.5942  -2.9072   0.0000   0.0000   0.0000   0.3562
   7.300   1.6446   0.01604   0.00914  -0.1938  0.0026  0.5986  -2.9403   0.0000   0.0000   0.0000   0.3551
   7.400   1.6522   0.01617   0.00929  -0.1932  0.0024  0.6103  -2.9742   0.0000   0.0000   0.0000   0.3540
   7.500   1.6597   0.01630   0.00945  -0.1926  0.0022  0.6193  -3.0080   0.0000   0.0000   0.0000   0.3529
   7.600   1.6669   0.01644   0.00960  -0.1919  0.0021  0.6255  -3.0417   0.0000   0.0000   0.0000   0.3518
   7.700   1.6741   0.01659   0.00975  -0.1912  0.0019  0.6290  -3.0754   0.0000   0.0000   0.0000   0.3508
   7.800   1.6814   0.01674   0.00992  -0.1906  0.0017  0.6374  -3.1097   0.0000   0.0000   0.0000   0.3497
   7.900   1.6888   0.01689   0.01008  -0.1900  0.0015  0.6458  -3.1441   0.0000   0.0000   0.0000   0.3487
   8.000   1.6959   0.01705   0.01025  -0.1893  0.0014  0.6523  -3.1782   0.0000   0.0000   0.0000   0.3476
   8.100   1.7027   0.01722   0.01043  -0.1886  0.0014  0.6574  -3.2120   0.0000   0.0000   0.0000   0.3466
   8.300   1.7165   0.01757   0.01082  -0.1872  0.0014  0.6677  -3.2800   0.0000   0.0000   0.0000   0.3445
   8.400   1.7233   0.01775   0.01102  -0.1865  0.0014  0.6758  -3.3143   0.0000   0.0000   0.0000   0.3435
   8.500   1.7301   0.01794   0.01122  -0.1858  0.0013  0.6818  -3.3483   0.0000   0.0000   0.0000   0.3425
   8.600   1.7367   0.01813   0.01143  -0.1851  0.0013  0.6861  -3.3823   0.0000   0.0000   0.0000   0.3415
   8.700   1.7433   0.01833   0.01163  -0.1843  0.0013  0.6892  -3.4163   0.0000   0.0000   0.0000   0.3405
   8.800   1.7496   0.01854   0.01185  -0.1836  0.0013  0.6914  -3.4499   0.0000   0.0000   0.0000   0.3395
   8.900   1.7561   0.01875   0.01207  -0.1829  0.0013  0.6977  -3.4836   0.0000   0.0000   0.0000   0.3385
   9.000   1.7626   0.01896   0.01231  -0.1821  0.0013  0.7037  -3.5175   0.0000   0.0000   0.0000   0.3376
   9.100   1.7690   0.01918   0.01254  -0.1814  0.0013  0.7090  -3.5513   0.0000   0.0000   0.0000   0.3366
   9.200   1.7751   0.01941   0.01279  -0.1807  0.0013  0.7139  -3.5846   0.0000   0.0000   0.0000   0.3356
   9.300   1.7809   0.01965   0.01304  -0.1799  0.0013  0.7183  -3.6173   0.0000   0.0000   0.0000   0.3347
   9.900   1.8162   0.02126   0.01478  -0.1754  0.0013  0.7652  -3.8726   0.0000   0.0000   0.0000   0.3291
  10.000   1.8220   0.02155   0.01510  -0.1747  0.0013  0.7739  -3.9157   0.0000   0.0000   0.0000   0.3282
  10.100   1.8275   0.02187   0.01545  -0.1739  0.0013  0.7841  -3.9580   0.0000   0.0000   0.0000   0.3273
  10.200   1.8329   0.02219   0.01581  -0.1732  0.0013  0.7964  -4.0002   0.0000   0.0000   0.0000   0.3264
  10.300   1.8383   0.02252   0.01617  -0.1725  0.0013  0.8067  -4.0424   0.0000   0.0000   0.0000   0.3256
  10.400   1.8440   0.02286   0.01655  -0.1718  0.0013  0.8204  -4.0850   0.0000   0.0000   0.0000   0.3247
  10.500   1.8490   0.02323   0.01696  -0.1711  0.0013  0.8340  -4.1259   0.0000   0.0000   0.0000   0.3239
  10.600   1.8541   0.02361   0.01741  -0.1703  0.0013  0.8524  -4.1658   0.0000   0.0000   0.0000   0.3230
  10.700   1.8597   0.02398   0.01786  -0.1697  0.0013  0.8825  -4.2071   0.0000   0.0000   0.0000   0.3222


