xflr5 v6.59

 Calculated polar for: WORTMANN FX 63-137 AIRFOIL

 1 1 Reynolds number fixed          Mach number fixed         

 xtrf =   1.000 (top)        1.000 (bottom)
 Mach =   0.000     Re =     1.000 e 6     Ncrit =   9.000

  alpha     CL        CD       CDp       Cm    Top Xtr Bot Xtr   Cpmin    Chinge    XCp    
 ------- -------- --------- --------- -------- ------- ------- -------- --------- ---------
   0.000   0.8960   0.00965   0.00206  -0.2021  0.4209  0.0259  -1.1163   0.0000   0.0000   0.0000   0.4736
   0.200   0.9146   0.00998   0.00214  -0.2013  0.4021  0.0250  -1.1343   0.0000   0.0000   0.0000   0.4679
   0.300   0.9268   0.00996   0.00218  -0.2015  0.3974  0.0253  -1.1450   0.0000   0.0000   0.0000   0.4651
   0.400   0.9384   0.00999   0.00224  -0.2017  0.3863  0.0257  -1.1554   0.0000   0.0000   0.0000   0.4625
   0.500   0.9477   0.01020   0.00240  -0.2015  0.3641  0.0263  -1.1644   0.0000   0.0000   0.0000   0.4599
   0.600   0.9583   0.01029   0.00251  -0.2014  0.3559  0.0340  -1.1742   0.0000   0.0000   0.0000   0.4574
   0.700   0.9689   0.01038   0.00257  -0.2013  0.3497  0.0359  -1.1844   0.0000   0.0000   0.0000   0.4548
   0.800   0.9795   0.01046   0.00263  -0.2012  0.3431  0.0379  -1.1960   0.0000   0.0000   0.0000   0.4524
   0.900   0.9905   0.01051   0.00267  -0.2012  0.3387  0.0407  -1.2079   0.0000   0.0000   0.0000   0.4499
   1.000   1.0019   0.01053   0.00271  -0.2013  0.3372  0.0489  -1.2201   0.0000   0.0000   0.0000   0.4475
   1.100   1.0133   0.01055   0.00276  -0.2013  0.3346  0.0514  -1.2323   0.0000   0.0000   0.0000   0.4452
   1.200   1.0246   0.01059   0.00280  -0.2014  0.3302  0.0633  -1.2445   0.0000   0.0000   0.0000   0.4429
   1.300   1.0349   0.01069   0.00287  -0.2013  0.3193  0.0663  -1.2565   0.0000   0.0000   0.0000   0.4407
   1.400   1.0439   0.01090   0.00299  -0.2009  0.3044  0.0695  -1.2693   0.0000   0.0000   0.0000   0.4386
   1.500   1.0544   0.01099   0.00306  -0.2008  0.2978  0.0764  -1.2831   0.0000   0.0000   0.0000   0.4364
   1.600   1.0647   0.01109   0.00314  -0.2007  0.2911  0.0827  -1.2969   0.0000   0.0000   0.0000   0.4344
   1.700   1.0753   0.01119   0.00322  -0.2007  0.2837  0.1001  -1.3109   0.0000   0.0000   0.0000   0.4323
   1.800   1.0861   0.01125   0.00328  -0.2006  0.2784  0.1082  -1.3251   0.0000   0.0000   0.0000   0.4303
   1.900   1.0977   0.01127   0.00333  -0.2008  0.2761  0.1231  -1.3400   0.0000   0.0000   0.0000   0.4283
   2.000   1.1101   0.01125   0.00339  -0.2012  0.2723  0.1679  -1.3555   0.0000   0.0000   0.0000   0.4265
   2.100   1.1253   0.01114   0.00350  -0.2025  0.2582  0.3041  -1.3730   0.0000   0.0000   0.0000   0.4250
   2.200   1.1385   0.01115   0.00371  -0.2033  0.2451  0.4179  -1.3891   0.0000   0.0000   0.0000   0.4236
   2.300   1.1498   0.01122   0.00386  -0.2035  0.2394  0.4621  -1.4039   0.0000   0.0000   0.0000   0.4218
   2.400   1.1597   0.01135   0.00396  -0.2033  0.2334  0.4687  -1.4177   0.0000   0.0000   0.0000   0.4200
   2.500   1.1700   0.01146   0.00407  -0.2032  0.2269  0.4781  -1.4334   0.0000   0.0000   0.0000   0.4182
   2.600   1.1805   0.01154   0.00415  -0.2031  0.2220  0.4866  -1.4507   0.0000   0.0000   0.0000   0.4164
   2.700   1.1913   0.01160   0.00421  -0.2030  0.2203  0.4931  -1.4683   0.0000   0.0000   0.0000   0.4147
   2.800   1.2020   0.01166   0.00428  -0.2029  0.2179  0.4977  -1.4858   0.0000   0.0000   0.0000   0.4130
   2.900   1.2123   0.01175   0.00435  -0.2028  0.2133  0.5016  -1.5045   0.0000   0.0000   0.0000   0.4113
   3.000   1.2207   0.01200   0.00454  -0.2024  0.1956  0.5074  -1.5235   0.0000   0.0000   0.0000   0.4096
   3.100   1.2305   0.01213   0.00465  -0.2022  0.1911  0.5132  -1.5442   0.0000   0.0000   0.0000   0.4080
   3.200   1.2403   0.01226   0.00475  -0.2019  0.1867  0.5185  -1.5649   0.0000   0.0000   0.0000   0.4064
   3.300   1.2500   0.01240   0.00486  -0.2017  0.1821  0.5232  -1.5855   0.0000   0.0000   0.0000   0.4048
   3.400   1.2597   0.01253   0.00496  -0.2014  0.1772  0.5272  -1.6062   0.0000   0.0000   0.0000   0.4032
   3.500   1.2696   0.01263   0.00506  -0.2012  0.1722  0.5306  -1.6272   0.0000   0.0000   0.0000   0.4016
   3.600   1.2800   0.01271   0.00514  -0.2011  0.1698  0.5340  -1.6488   0.0000   0.0000   0.0000   0.4001
   3.700   1.2906   0.01278   0.00522  -0.2010  0.1686  0.5409  -1.6707   0.0000   0.0000   0.0000   0.3986
   3.800   1.3011   0.01284   0.00531  -0.2009  0.1668  0.5491  -1.6930   0.0000   0.0000   0.0000   0.3971
   3.900   1.3113   0.01293   0.00540  -0.2008  0.1639  0.5565  -1.7254   0.0000   0.0000   0.0000   0.3957
   4.000   1.3207   0.01307   0.00555  -0.2005  0.1558  0.5609  -1.7565   0.0000   0.0000   0.0000   0.3942
   4.100   1.3285   0.01333   0.00574  -0.1999  0.1444  0.5668  -1.7853   0.0000   0.0000   0.0000   0.3928
   4.200   1.3381   0.01347   0.00588  -0.1997  0.1410  0.5780  -1.8171   0.0000   0.0000   0.0000   0.3914
   4.300   1.3475   0.01361   0.00602  -0.1994  0.1376  0.5874  -1.8487   0.0000   0.0000   0.0000   0.3900
   4.400   1.3566   0.01376   0.00615  -0.1991  0.1335  0.5947  -1.8799   0.0000   0.0000   0.0000   0.3886
   4.500   1.3658   0.01391   0.00628  -0.1987  0.1275  0.6018  -1.9115   0.0000   0.0000   0.0000   0.3872
   4.600   1.3756   0.01401   0.00640  -0.1985  0.1235  0.6100  -1.9443   0.0000   0.0000   0.0000   0.3858
   4.700   1.3853   0.01412   0.00652  -0.1983  0.1210  0.6160  -1.9771   0.0000   0.0000   0.0000   0.3845
   4.900   1.3997   0.01467   0.00695  -0.1970  0.0995  0.6248  -2.0349   0.0000   0.0000   0.0000   0.3818
   5.000   1.4073   0.01491   0.00713  -0.1963  0.0943  0.6280  -2.0643   0.0000   0.0000   0.0000   0.3804
   5.100   1.4156   0.01509   0.00729  -0.1959  0.0881  0.6324  -2.0952   0.0000   0.0000   0.0000   0.3791
   5.200   1.4249   0.01522   0.00743  -0.1956  0.0842  0.6388  -2.1278   0.0000   0.0000   0.0000   0.3779
   5.300   1.4343   0.01532   0.00756  -0.1953  0.0832  0.6442  -2.1613   0.0000   0.0000   0.0000   0.3766
   5.400   1.4436   0.01543   0.00768  -0.1950  0.0816  0.6491  -2.1945   0.0000   0.0000   0.0000   0.3754
   5.500   1.4527   0.01555   0.00781  -0.1946  0.0796  0.6535  -2.2274   0.0000   0.0000   0.0000   0.3741
   5.600   1.4614   0.01569   0.00794  -0.1942  0.0767  0.6570  -2.2600   0.0000   0.0000   0.0000   0.3729
   5.700   1.4676   0.01598   0.00820  -0.1934  0.0665  0.6597  -2.2885   0.0000   0.0000   0.0000   0.3716
   5.900   1.4831   0.01632   0.00851  -0.1922  0.0635  0.6680  -2.3507   0.0000   0.0000   0.0000   0.3691
   6.000   1.4902   0.01650   0.00867  -0.1915  0.0618  0.6721  -2.3807   0.0000   0.0000   0.0000   0.3679
   6.100   1.4971   0.01667   0.00884  -0.1908  0.0596  0.6762  -2.4106   0.0000   0.0000   0.0000   0.3666
   6.200   1.5037   0.01688   0.00906  -0.1900  0.0560  0.6802  -2.4397   0.0000   0.0000   0.0000   0.3654
   6.300   1.5107   0.01706   0.00925  -0.1893  0.0529  0.6842  -2.4696   0.0000   0.0000   0.0000   0.3642
   6.400   1.5183   0.01720   0.00940  -0.1887  0.0516  0.6880  -2.5014   0.0000   0.0000   0.0000   0.3630
   6.500   1.5261   0.01735   0.00956  -0.1881  0.0513  0.6911  -2.5354   0.0000   0.0000   0.0000   0.3618
   6.600   1.5340   0.01749   0.00972  -0.1876  0.0509  0.6966  -2.5696   0.0000   0.0000   0.0000   0.3607
   6.700   1.5417   0.01763   0.00990  -0.1870  0.0504  0.7018  -2.6033   0.0000   0.0000   0.0000   0.3595
   6.800   1.5493   0.01779   0.01007  -0.1864  0.0497  0.7068  -2.6367   0.0000   0.0000   0.0000   0.3584
   6.900   1.5566   0.01796   0.01026  -0.1858  0.0489  0.7118  -2.6699   0.0000   0.0000   0.0000   0.3573
   7.000   1.5639   0.01813   0.01044  -0.1851  0.0481  0.7166  -2.7028   0.0000   0.0000   0.0000   0.3561
   7.100   1.5709   0.01832   0.01063  -0.1845  0.0472  0.7210  -2.7355   0.0000   0.0000   0.0000   0.3550
   7.200   1.5779   0.01851   0.01085  -0.1838  0.0461  0.7277  -2.7683   0.0000   0.0000   0.0000   0.3539
   7.300   1.5845   0.01871   0.01107  -0.1831  0.0450  0.7345  -2.8007   0.0000   0.0000   0.0000   0.3528
   7.400   1.5908   0.01894   0.01131  -0.1823  0.0438  0.7413  -2.8327   0.0000   0.0000   0.0000   0.3517
   7.500   1.5969   0.01919   0.01156  -0.1815  0.0424  0.7477  -2.8643   0.0000   0.0000   0.0000   0.3506
   7.600   1.6030   0.01944   0.01183  -0.1807  0.0410  0.7548  -2.8960   0.0000   0.0000   0.0000   0.3495
   7.700   1.6093   0.01967   0.01208  -0.1800  0.0395  0.7628  -2.9279   0.0000   0.0000   0.0000   0.3484
   7.800   1.6159   0.01990   0.01232  -0.1793  0.0382  0.7710  -2.9599   0.0000   0.0000   0.0000   0.3474
   8.000   1.6299   0.02030   0.01277  -0.1781  0.0375  0.7884  -3.0294   0.0000   0.0000   0.0000   0.3453
   8.100   1.6365   0.02051   0.01300  -0.1775  0.0370  0.7983  -3.0638   0.0000   0.0000   0.0000   0.3443
   8.200   1.6430   0.02074   0.01325  -0.1768  0.0362  0.8078  -3.0981   0.0000   0.0000   0.0000   0.3433
   8.300   1.6492   0.02098   0.01351  -0.1761  0.0352  0.8190  -3.1327   0.0000   0.0000   0.0000   0.3423
   8.500   1.6545   0.02189   0.01440  -0.1737  0.0260  0.8452  -3.2013   0.0000   0.0000   0.0000   0.3401
   8.600   1.6570   0.02235   0.01486  -0.1724  0.0223  0.8642  -3.2210   0.0000   0.0000   0.0000   0.3390
   8.700   1.6581   0.02271   0.01528  -0.1709  0.0187  0.9076  -3.2268   0.0000   0.0000   0.0000   0.3379
   8.800   1.6662   0.02243   0.01517  -0.1702  0.0259  1.0000  -3.2854   0.0000   0.0000   0.0000   0.3368
   8.900   1.6698   0.02288   0.01559  -0.1692  0.0235  1.0000  -3.3115   0.0000   0.0000   0.0000   0.3358
   9.000   1.6727   0.02339   0.01608  -0.1681  0.0203  1.0000  -3.3225   0.0000   0.0000   0.0000   0.3348
   9.100   1.6769   0.02382   0.01650  -0.1673  0.0170  1.0000  -3.3386   0.0000   0.0000   0.0000   0.3338
   9.200   1.6820   0.02420   0.01687  -0.1665  0.0158  1.0000  -3.3675   0.0000   0.0000   0.0000   0.3329
   9.300   1.6751   0.02544   0.01810  -0.1643  0.0053  1.0000  -3.3814   0.0000   0.0000   0.0000   0.3318
   9.400   1.6784   0.02596   0.01863  -0.1634  0.0043  1.0000  -3.4104   0.0000   0.0000   0.0000   0.3309
   9.500   1.6820   0.02646   0.01913  -0.1625  0.0039  1.0000  -3.4403   0.0000   0.0000   0.0000   0.3300
   9.600   1.6867   0.02688   0.01956  -0.1618  0.0034  1.0000  -3.4680   0.0000   0.0000   0.0000   0.3291
   9.700   1.6917   0.02729   0.01997  -0.1612  0.0027  1.0000  -3.4937   0.0000   0.0000   0.0000   0.3282
   9.800   1.6963   0.02773   0.02043  -0.1605  0.0024  1.0000  -3.5219   0.0000   0.0000   0.0000   0.3274
   9.900   1.7007   0.02820   0.02092  -0.1598  0.0022  1.0000  -3.5509   0.0000   0.0000   0.0000   0.3265
  10.000   1.7053   0.02866   0.02140  -0.1591  0.0021  1.0000  -3.5801   0.0000   0.0000   0.0000   0.3257
  10.100   1.7096   0.02915   0.02191  -0.1584  0.0021  1.0000  -3.6150   0.0000   0.0000   0.0000   0.3248
  10.200   1.7139   0.02965   0.02243  -0.1577  0.0020  1.0000  -3.6505   0.0000   0.0000   0.0000   0.3240
  10.300   1.7182   0.03015   0.02295  -0.1571  0.0020  1.0000  -3.6867   0.0000   0.0000   0.0000   0.3232
  10.400   1.7227   0.03065   0.02347  -0.1565  0.0020  1.0000  -3.7236   0.0000   0.0000   0.0000   0.3224
  10.500   1.7270   0.03116   0.02401  -0.1559  0.0019  1.0000  -3.7603   0.0000   0.0000   0.0000   0.3216
  10.600   1.7310   0.03171   0.02459  -0.1552  0.0019  1.0000  -3.7963   0.0000   0.0000   0.0000   0.3208
  10.700   1.7350   0.03226   0.02516  -0.1546  0.0019  1.0000  -3.8325   0.0000   0.0000   0.0000   0.3201
  10.800   1.7392   0.03281   0.02574  -0.1540  0.0019  1.0000  -3.8692   0.0000   0.0000   0.0000   0.3193
  10.900   1.7434   0.03336   0.02631  -0.1534  0.0019  1.0000  -3.9061   0.0000   0.0000   0.0000   0.3186
  11.000   1.7472   0.03394   0.02692  -0.1528  0.0019  1.0000  -3.9422   0.0000   0.0000   0.0000   0.3178
  11.100   1.7507   0.03457   0.02757  -0.1522  0.0019  1.0000  -3.9774   0.0000   0.0000   0.0000   0.3171
  11.200   1.7542   0.03519   0.02823  -0.1516  0.0019  1.0000  -4.0127   0.0000   0.0000   0.0000   0.3164
  11.300   1.7579   0.03581   0.02887  -0.1510  0.0019  1.0000  -4.0484   0.0000   0.0000   0.0000   0.3157
  11.500   1.7644   0.03713   0.03027  -0.1499  0.0019  1.0000  -4.1174   0.0000   0.0000   0.0000   0.3142
  11.600   1.7672   0.03784   0.03102  -0.1493  0.0019  1.0000  -4.1507   0.0000   0.0000   0.0000   0.3136
  11.700   1.7701   0.03855   0.03175  -0.1487  0.0019  1.0000  -4.1845   0.0000   0.0000   0.0000   0.3129
  11.800   1.7732   0.03925   0.03248  -0.1481  0.0019  1.0000  -4.2189   0.0000   0.0000   0.0000   0.3122
  11.900   1.7762   0.03995   0.03321  -0.1476  0.0019  1.0000  -4.2533   0.0000   0.0000   0.0000   0.3115
  12.000   1.7789   0.04070   0.03399  -0.1470  0.0020  1.0000  -4.2866   0.0000   0.0000   0.0000   0.3109
  12.100   1.7809   0.04152   0.03485  -0.1465  0.0020  1.0000  -4.3344   0.0000   0.0000   0.0000   0.3103
  12.200   1.7828   0.04234   0.03570  -0.1459  0.0020  1.0000  -4.3942   0.0000   0.0000   0.0000   0.3096
  12.300   1.7849   0.04314   0.03653  -0.1453  0.0020  1.0000  -4.4550   0.0000   0.0000   0.0000   0.3090
  12.400   1.7871   0.04394   0.03737  -0.1448  0.0020  1.0000  -4.5163   0.0000   0.0000   0.0000   0.3084
  12.500   1.7889   0.04479   0.03825  -0.1442  0.0020  1.0000  -4.5762   0.0000   0.0000   0.0000   0.3078
  12.600   1.7898   0.04576   0.03926  -0.1437  0.0021  1.0000  -4.6318   0.0000   0.0000   0.0000   0.3072
  12.700   1.7911   0.04671   0.04024  -0.1432  0.0021  1.0000  -4.6891   0.0000   0.0000   0.0000   0.3066
  12.800   1.7926   0.04763   0.04120  -0.1427  0.0021  1.0000  -4.7483   0.0000   0.0000   0.0000   0.3060
  12.900   1.7943   0.04855   0.04215  -0.1422  0.0021  1.0000  -4.8084   0.0000   0.0000   0.0000   0.3055
  13.000   1.7960   0.04948   0.04312  -0.1417  0.0021  1.0000  -4.8686   0.0000   0.0000   0.0000   0.3049
  13.100   1.7969   0.05050   0.04418  -0.1413  0.0022  1.0000  -4.9253   0.0000   0.0000   0.0000   0.3044
  13.200   1.7972   0.05163   0.04535  -0.1408  0.0022  1.0000  -4.9785   0.0000   0.0000   0.0000   0.3039
  13.300   1.7979   0.05271   0.04646  -0.1404  0.0022  1.0000  -5.0341   0.0000   0.0000   0.0000   0.3034
  13.400   1.7990   0.05376   0.04755  -0.1400  0.0022  1.0000  -5.0915   0.0000   0.0000   0.0000   0.3029
  13.500   1.8001   0.05481   0.04863  -0.1396  0.0023  1.0000  -5.1491   0.0000   0.0000   0.0000   0.3024
  13.600   1.8008   0.05592   0.04978  -0.1392  0.0023  1.0000  -5.2047   0.0000   0.0000   0.0000   0.3019
  13.700   1.8003   0.05720   0.05110  -0.1389  0.0023  1.0000  -5.2539   0.0000   0.0000   0.0000   0.3015
  13.800   1.8002   0.05843   0.05237  -0.1385  0.0024  1.0000  -5.3054   0.0000   0.0000   0.0000   0.3011
  13.900   1.8007   0.05960   0.05357  -0.1382  0.0024  1.0000  -5.3595   0.0000   0.0000   0.0000   0.3006
  14.000   1.8013   0.06075   0.05476  -0.1379  0.0024  1.0000  -5.4140   0.0000   0.0000   0.0000   0.3002
  14.100   1.8017   0.06193   0.05598  -0.1376  0.0025  1.0000  -5.4674   0.0000   0.0000   0.0000   0.2998
  14.200   1.8017   0.06318   0.05727  -0.1373  0.0025  1.0000  -5.5179   0.0000   0.0000   0.0000   0.2994
  14.300   1.8003   0.06464   0.05878  -0.1370  0.0026  1.0000  -5.5606   0.0000   0.0000   0.0000   0.2991
  14.400   1.7996   0.06602   0.06019  -0.1368  0.0026  1.0000  -5.6061   0.0000   0.0000   0.0000   0.2987
  14.500   1.7995   0.06731   0.06152  -0.1366  0.0027  1.0000  -5.6539   0.0000   0.0000   0.0000   0.2984
  14.600   1.7996   0.06858   0.06283  -0.1364  0.0027  1.0000  -5.7016   0.0000   0.0000   0.0000   0.2980
  14.700   1.7997   0.06985   0.06413  -0.1362  0.0028  1.0000  -5.7478   0.0000   0.0000   0.0000   0.2976
  14.800   1.7984   0.07136   0.06568  -0.1361  0.0028  1.0000  -5.7851   0.0000   0.0000   0.0000   0.2974
  14.900   1.7975   0.07282   0.06720  -0.1360  0.0029  1.0000  -5.8259   0.0000   0.0000   0.0000   0.2971
  15.000   1.7975   0.07414   0.06855  -0.1358  0.0030  1.0000  -5.8686   0.0000   0.0000   0.0000   0.2968
  15.100   1.7980   0.07539   0.06982  -0.1357  0.0031  1.0000  -5.9123   0.0000   0.0000   0.0000   0.2964
  15.200   1.7987   0.07661   0.07107  -0.1356  0.0031  1.0000  -5.9568   0.0000   0.0000   0.0000   0.2961
  15.300   1.7995   0.07783   0.07232  -0.1355  0.0032  1.0000  -6.0010   0.0000   0.0000   0.0000   0.2957
  15.400   1.7990   0.07922   0.07374  -0.1354  0.0033  1.0000  -6.0395   0.0000   0.0000   0.0000   0.2955
  15.500   1.7972   0.08080   0.07537  -0.1354  0.0034  1.0000  -6.0714   0.0000   0.0000   0.0000   0.2953
  15.600   1.7966   0.08222   0.07683  -0.1354  0.0035  1.0000  -6.1094   0.0000   0.0000   0.0000   0.2950
  15.700   1.7967   0.08355   0.07819  -0.1354  0.0036  1.0000  -6.1506   0.0000   0.0000   0.0000   0.2948
  15.800   1.7976   0.08477   0.07946  -0.1353  0.0037  1.0000  -6.1955   0.0000   0.0000   0.0000   0.2945
  15.900   1.7984   0.08601   0.08074  -0.1353  0.0038  1.0000  -6.2397   0.0000   0.0000   0.0000   0.2941
  16.000   1.7973   0.08757   0.08236  -0.1354  0.0039  1.0000  -6.2740   0.0000   0.0000   0.0000   0.2940
  16.100   1.7958   0.08922   0.08406  -0.1355  0.0040  1.0000  -6.3058   0.0000   0.0000   0.0000   0.2939
  16.200   1.7954   0.09070   0.08559  -0.1356  0.0041  1.0000  -6.3419   0.0000   0.0000   0.0000   0.2937
  16.300   1.7950   0.09216   0.08711  -0.1357  0.0042  1.0000  -6.3767   0.0000   0.0000   0.0000   0.2935
  16.400   1.7941   0.09372   0.08873  -0.1358  0.0043  1.0000  -6.4055   0.0000   0.0000   0.0000   0.2933
  16.500   1.7918   0.09547   0.09056  -0.1359  0.0044  1.0000  -6.4210   0.0000   0.0000   0.0000   0.2932
  16.600   1.7847   0.09812   0.09336  -0.1363  0.0047  1.0000  -6.3734   0.0000   0.0000   0.0000   0.2934
  16.700   1.7830   0.09983   0.09511  -0.1366  0.0048  1.0000  -6.4139   0.0000   0.0000   0.0000   0.2934
  16.800   1.7821   0.10141   0.09672  -0.1368  0.0049  1.0000  -6.4588   0.0000   0.0000   0.0000   0.2933
  16.900   1.7812   0.10297   0.09831  -0.1371  0.0050  1.0000  -6.5040   0.0000   0.0000   0.0000   0.2932
  17.000   1.7803   0.10454   0.09992  -0.1373  0.0051  1.0000  -6.5488   0.0000   0.0000   0.0000   0.2931
  17.100   1.7776   0.10645   0.10188  -0.1377  0.0052  1.0000  -6.5813   0.0000   0.0000   0.0000   0.2932
  17.200   1.7741   0.10851   0.10398  -0.1382  0.0053  1.0000  -6.6082   0.0000   0.0000   0.0000   0.2934
  17.300   1.7720   0.11029   0.10580  -0.1386  0.0055  1.0000  -6.6442   0.0000   0.0000   0.0000   0.2934
  17.400   1.7703   0.11199   0.10754  -0.1390  0.0056  1.0000  -6.6824   0.0000   0.0000   0.0000   0.2934
  17.500   1.7686   0.11371   0.10930  -0.1393  0.0057  1.0000  -6.7197   0.0000   0.0000   0.0000   0.2934
  17.600   1.7665   0.11549   0.11113  -0.1398  0.0059  1.0000  -6.7538   0.0000   0.0000   0.0000   0.2935
  17.700   1.7623   0.11767   0.11336  -0.1404  0.0060  1.0000  -6.7731   0.0000   0.0000   0.0000   0.2938
  17.800   1.7576   0.11995   0.11569  -0.1411  0.0061  1.0000  -6.7882   0.0000   0.0000   0.0000   0.2942
  17.900   1.7542   0.12197   0.11778  -0.1417  0.0063  1.0000  -6.8109   0.0000   0.0000   0.0000   0.2944
  18.000   1.7510   0.12396   0.11982  -0.1424  0.0065  1.0000  -6.8332   0.0000   0.0000   0.0000   0.2946
  18.100   1.7474   0.12603   0.12195  -0.1430  0.0067  1.0000  -6.8503   0.0000   0.0000   0.0000   0.2949
  18.200   1.7415   0.12855   0.12454  -0.1440  0.0069  1.0000  -6.8508   0.0000   0.0000   0.0000   0.2954
  18.300   1.7488   0.12893   0.12500  -0.1438  0.0084  1.0000  -6.8817   0.0000   0.0000   0.0000   0.2947
  18.400   1.7479   0.13062   0.12677  -0.1442  0.0090  1.0000  -6.8900   0.0000   0.0000   0.0000   0.2947
  18.500   1.7446   0.13266   0.12887  -0.1449  0.0093  1.0000  -6.8909   0.0000   0.0000   0.0000   0.2949
  18.600   1.7399   0.13489   0.13117  -0.1457  0.0095  1.0000  -6.8854   0.0000   0.0000   0.0000   0.2953
  18.700   1.7341   0.13728   0.13364  -0.1465  0.0096  1.0000  -6.8737   0.0000   0.0000   0.0000   0.2958
  18.800   1.7268   0.13998   0.13641  -0.1477  0.0097  1.0000  -6.8539   0.0000   0.0000   0.0000   0.2966
  18.900   1.7190   0.14283   0.13933  -0.1489  0.0098  1.0000  -6.8293   0.0000   0.0000   0.0000   0.2974
  19.000   1.7111   0.14560   0.14217  -0.1501  0.0098  1.0000  -6.7985   0.0000   0.0000   0.0000   0.2982
  19.600   1.7177   0.15307   0.14980  -0.1535  0.0120  1.0000  -7.0907   0.0000   0.0000   0.0000   0.2982
  19.700   1.7165   0.15453   0.15135  -0.1542  0.0128  1.0000  -7.1000   0.0000   0.0000   0.0000   0.2983


