xflr5 v6.59

 Calculated polar for: WORTMANN FX 63-137 AIRFOIL

 1 1 Reynolds number fixed          Mach number fixed         

 xtrf =   1.000 (top)        1.000 (bottom)
 Mach =   0.000     Re =     0.300 e 6     Ncrit =   9.000

  alpha     CL        CD       CDp       Cm    Top Xtr Bot Xtr   Cpmin    Chinge    XCp    
 ------- -------- --------- --------- -------- ------- ------- -------- --------- ---------
   0.000   0.9060   0.01065   0.00353  -0.2053  0.6722  0.4284  -1.1076   0.0000   0.0000   0.0000   0.4749
   0.100   0.9174   0.01067   0.00357  -0.2054  0.6690  0.4421  -1.1179   0.0000   0.0000   0.0000   0.4720
   0.200   0.9289   0.01070   0.00362  -0.2054  0.6659  0.4571  -1.1282   0.0000   0.0000   0.0000   0.4691
   0.300   0.9403   0.01074   0.00366  -0.2054  0.6628  0.4696  -1.1384   0.0000   0.0000   0.0000   0.4663
   0.400   0.9517   0.01078   0.00373  -0.2055  0.6599  0.4836  -1.1486   0.0000   0.0000   0.0000   0.4636
   0.500   0.9628   0.01080   0.00379  -0.2055  0.6573  0.4960  -1.1586   0.0000   0.0000   0.0000   0.4609
   0.600   0.9739   0.01082   0.00387  -0.2054  0.6544  0.5076  -1.1685   0.0000   0.0000   0.0000   0.4583
   0.700   0.9848   0.01085   0.00397  -0.2054  0.6511  0.5274  -1.1804   0.0000   0.0000   0.0000   0.4557
   0.800   0.9956   0.01089   0.00410  -0.2052  0.6477  0.5487  -1.1921   0.0000   0.0000   0.0000   0.4532
   0.900   1.0058   0.01098   0.00428  -0.2049  0.6442  0.5753  -1.2036   0.0000   0.0000   0.0000   0.4507
   1.000   1.0161   0.01106   0.00439  -0.2046  0.6406  0.5877  -1.2151   0.0000   0.0000   0.0000   0.4482
   1.100   1.0268   0.01115   0.00446  -0.2045  0.6370  0.5967  -1.2269   0.0000   0.0000   0.0000   0.4458
   1.200   1.0373   0.01119   0.00451  -0.2043  0.6336  0.6036  -1.2386   0.0000   0.0000   0.0000   0.4434
   1.300   1.0475   0.01126   0.00458  -0.2040  0.6298  0.6104  -1.2501   0.0000   0.0000   0.0000   0.4411
   1.400   1.0579   0.01131   0.00466  -0.2038  0.6262  0.6172  -1.2635   0.0000   0.0000   0.0000   0.4388
   1.500   1.0682   0.01137   0.00473  -0.2035  0.6218  0.6238  -1.2774   0.0000   0.0000   0.0000   0.4366
   1.600   1.0787   0.01145   0.00478  -0.2033  0.6168  0.6292  -1.2914   0.0000   0.0000   0.0000   0.4344
   1.700   1.0887   0.01146   0.00482  -0.2030  0.6116  0.6350  -1.3050   0.0000   0.0000   0.0000   0.4323
   1.800   1.0984   0.01152   0.00487  -0.2027  0.6063  0.6400  -1.3186   0.0000   0.0000   0.0000   0.4301
   1.900   1.1082   0.01160   0.00491  -0.2023  0.6010  0.6447  -1.3322   0.0000   0.0000   0.0000   0.4280
   2.000   1.1184   0.01168   0.00497  -0.2021  0.5962  0.6491  -1.3460   0.0000   0.0000   0.0000   0.4260
   2.100   1.1291   0.01171   0.00503  -0.2020  0.5920  0.6530  -1.3602   0.0000   0.0000   0.0000   0.4241
   2.200   1.1398   0.01176   0.00508  -0.2019  0.5872  0.6564  -1.3744   0.0000   0.0000   0.0000   0.4222
   2.300   1.1505   0.01181   0.00516  -0.2018  0.5821  0.6590  -1.3887   0.0000   0.0000   0.0000   0.4203
   2.400   1.1610   0.01186   0.00519  -0.2017  0.5767  0.6616  -1.4028   0.0000   0.0000   0.0000   0.4185
   2.500   1.1711   0.01191   0.00522  -0.2014  0.5711  0.6648  -1.4166   0.0000   0.0000   0.0000   0.4166
   2.600   1.1808   0.01198   0.00527  -0.2011  0.5655  0.6679  -1.4332   0.0000   0.0000   0.0000   0.4148
   2.700   1.1911   0.01203   0.00533  -0.2010  0.5606  0.6710  -1.4502   0.0000   0.0000   0.0000   0.4130
   2.800   1.2012   0.01209   0.00538  -0.2007  0.5550  0.6743  -1.4671   0.0000   0.0000   0.0000   0.4113
   2.900   1.2111   0.01217   0.00544  -0.2005  0.5490  0.6777  -1.4839   0.0000   0.0000   0.0000   0.4096
   3.000   1.2207   0.01227   0.00550  -0.2002  0.5428  0.6812  -1.5005   0.0000   0.0000   0.0000   0.4078
   3.100   1.2301   0.01239   0.00556  -0.1998  0.5366  0.6847  -1.5176   0.0000   0.0000   0.0000   0.4062
   3.200   1.2401   0.01249   0.00562  -0.1996  0.5311  0.6880  -1.5383   0.0000   0.0000   0.0000   0.4045
   3.300   1.2508   0.01255   0.00569  -0.1995  0.5258  0.6909  -1.5599   0.0000   0.0000   0.0000   0.4030
   3.400   1.2610   0.01259   0.00575  -0.1994  0.5191  0.6942  -1.5809   0.0000   0.0000   0.0000   0.4014
   3.500   1.2705   0.01266   0.00582  -0.1990  0.5118  0.6973  -1.6013   0.0000   0.0000   0.0000   0.3998
   3.600   1.2795   0.01277   0.00590  -0.1986  0.5044  0.7004  -1.6213   0.0000   0.0000   0.0000   0.3982
   3.700   1.2887   0.01289   0.00598  -0.1982  0.4981  0.7036  -1.6415   0.0000   0.0000   0.0000   0.3967
   3.800   1.2986   0.01298   0.00606  -0.1980  0.4924  0.7069  -1.6714   0.0000   0.0000   0.0000   0.3952
   3.900   1.3083   0.01307   0.00614  -0.1978  0.4868  0.7104  -1.7027   0.0000   0.0000   0.0000   0.3937
   4.000   1.3178   0.01319   0.00628  -0.1975  0.4810  0.7140  -1.7337   0.0000   0.0000   0.0000   0.3922
   4.100   1.3269   0.01333   0.00638  -0.1971  0.4752  0.7175  -1.7644   0.0000   0.0000   0.0000   0.3908
   4.200   1.3359   0.01348   0.00648  -0.1967  0.4695  0.7208  -1.7950   0.0000   0.0000   0.0000   0.3894
   4.300   1.3457   0.01356   0.00657  -0.1965  0.4649  0.7243  -1.8269   0.0000   0.0000   0.0000   0.3880
   4.400   1.3558   0.01361   0.00666  -0.1963  0.4598  0.7279  -1.8594   0.0000   0.0000   0.0000   0.3866
   4.500   1.3654   0.01369   0.00676  -0.1960  0.4534  0.7317  -1.8915   0.0000   0.0000   0.0000   0.3852
   4.600   1.3746   0.01381   0.00686  -0.1957  0.4459  0.7356  -1.9229   0.0000   0.0000   0.0000   0.3838
   4.700   1.3829   0.01397   0.00699  -0.1952  0.4382  0.7398  -1.9533   0.0000   0.0000   0.0000   0.3825
   4.800   1.3915   0.01412   0.00711  -0.1947  0.4318  0.7442  -1.9842   0.0000   0.0000   0.0000   0.3811
   4.900   1.4009   0.01426   0.00723  -0.1945  0.4260  0.7486  -2.0163   0.0000   0.0000   0.0000   0.3798
   5.000   1.4096   0.01439   0.00735  -0.1940  0.4201  0.7530  -2.0476   0.0000   0.0000   0.0000   0.3785
   5.100   1.4177   0.01453   0.00748  -0.1935  0.4142  0.7575  -2.0780   0.0000   0.0000   0.0000   0.3772
   5.200   1.4252   0.01471   0.00763  -0.1928  0.4083  0.7625  -2.1078   0.0000   0.0000   0.0000   0.3759
   5.300   1.4329   0.01490   0.00779  -0.1922  0.4025  0.7680  -2.1376   0.0000   0.0000   0.0000   0.3746
   5.400   1.4430   0.01498   0.00790  -0.1921  0.3982  0.7739  -2.1716   0.0000   0.0000   0.0000   0.3733
   5.500   1.4525   0.01508   0.00802  -0.1918  0.3923  0.7794  -2.2049   0.0000   0.0000   0.0000   0.3721
   5.600   1.4609   0.01519   0.00815  -0.1913  0.3848  0.7849  -2.2363   0.0000   0.0000   0.0000   0.3709
   5.700   1.4684   0.01536   0.00831  -0.1906  0.3763  0.7908  -2.2664   0.0000   0.0000   0.0000   0.3696
   5.800   1.4753   0.01558   0.00849  -0.1899  0.3688  0.7971  -2.2957   0.0000   0.0000   0.0000   0.3684
   5.900   1.4834   0.01576   0.00865  -0.1894  0.3626  0.8035  -2.3270   0.0000   0.0000   0.0000   0.3672
   6.000   1.4907   0.01593   0.00881  -0.1888  0.3564  0.8094  -2.3571   0.0000   0.0000   0.0000   0.3659
   6.100   1.4975   0.01611   0.00899  -0.1880  0.3503  0.8162  -2.3864   0.0000   0.0000   0.0000   0.3647
   6.200   1.5039   0.01633   0.00923  -0.1872  0.3442  0.8238  -2.4151   0.0000   0.0000   0.0000   0.3635
   6.300   1.5106   0.01653   0.00942  -0.1865  0.3387  0.8316  -2.4443   0.0000   0.0000   0.0000   0.3623
   6.400   1.5189   0.01660   0.00954  -0.1859  0.3343  0.8403  -2.4763   0.0000   0.0000   0.0000   0.3611
   6.500   1.5257   0.01675   0.00970  -0.1852  0.3236  0.8506  -2.5059   0.0000   0.0000   0.0000   0.3599
   6.600   1.5272   0.01706   0.00994  -0.1835  0.3080  0.8620  -2.5268   0.0000   0.0000   0.0000   0.3585
   6.800   1.5266   0.01762   0.01041  -0.1793  0.2874  0.9040  -2.5620   0.0000   0.0000   0.0000   0.3555
   6.900   1.5234   0.01782   0.01058  -0.1766  0.2791  1.0000  -2.5745   0.0000   0.0000   0.0000   0.3538
   7.000   1.5303   0.01812   0.01083  -0.1761  0.2627  1.0000  -2.6044   0.0000   0.0000   0.0000   0.3528
   7.100   1.5308   0.01872   0.01128  -0.1745  0.2433  1.0000  -2.6232   0.0000   0.0000   0.0000   0.3516
   7.200   1.5316   0.01931   0.01174  -0.1730  0.2307  1.0000  -2.6424   0.0000   0.0000   0.0000   0.3504
   7.300   1.5347   0.01978   0.01213  -0.1719  0.2193  1.0000  -2.6658   0.0000   0.0000   0.0000   0.3493
   7.500   1.5381   0.02090   0.01305  -0.1693  0.1863  1.0000  -2.7075   0.0000   0.0000   0.0000   0.3470
   7.600   1.5387   0.02155   0.01358  -0.1679  0.1756  1.0000  -2.7261   0.0000   0.0000   0.0000   0.3458
   7.700   1.5430   0.02197   0.01396  -0.1670  0.1670  1.0000  -2.7514   0.0000   0.0000   0.0000   0.3448
   7.900   1.5470   0.02309   0.01495  -0.1646  0.1407  1.0000  -2.7942   0.0000   0.0000   0.0000   0.3426
   8.000   1.5484   0.02371   0.01549  -0.1634  0.1338  1.0000  -2.8144   0.0000   0.0000   0.0000   0.3416
   8.100   1.5508   0.02428   0.01600  -0.1623  0.1274  1.0000  -2.8362   0.0000   0.0000   0.0000   0.3405
   8.200   1.5559   0.02467   0.01639  -0.1616  0.1235  1.0000  -2.8629   0.0000   0.0000   0.0000   0.3396
   8.300   1.5624   0.02497   0.01671  -0.1610  0.1213  1.0000  -2.8923   0.0000   0.0000   0.0000   0.3386
   8.400   1.5684   0.02531   0.01706  -0.1604  0.1180  1.0000  -2.9209   0.0000   0.0000   0.0000   0.3377
   8.500   1.5736   0.02570   0.01745  -0.1598  0.1119  1.0000  -2.9480   0.0000   0.0000   0.0000   0.3367
   8.600   1.5765   0.02626   0.01799  -0.1588  0.1026  1.0000  -2.9710   0.0000   0.0000   0.0000   0.3357
   8.700   1.5798   0.02680   0.01850  -0.1580  0.1002  1.0000  -2.9947   0.0000   0.0000   0.0000   0.3348
   8.800   1.5828   0.02737   0.01905  -0.1571  0.0978  1.0000  -3.0177   0.0000   0.0000   0.0000   0.3339
   8.900   1.5857   0.02795   0.01960  -0.1562  0.0953  1.0000  -3.0406   0.0000   0.0000   0.0000   0.3330
   9.000   1.5886   0.02853   0.02016  -0.1554  0.0928  1.0000  -3.0633   0.0000   0.0000   0.0000   0.3321
   9.100   1.5918   0.02910   0.02072  -0.1546  0.0903  1.0000  -3.0863   0.0000   0.0000   0.0000   0.3312
   9.200   1.5956   0.02963   0.02125  -0.1538  0.0878  1.0000  -3.1105   0.0000   0.0000   0.0000   0.3303
   9.300   1.6009   0.03004   0.02176  -0.1533  0.0874  1.0000  -3.1372   0.0000   0.0000   0.0000   0.3294
   9.400   1.6054   0.03053   0.02227  -0.1526  0.0859  1.0000  -3.1622   0.0000   0.0000   0.0000   0.3286
   9.500   1.6097   0.03104   0.02280  -0.1520  0.0843  1.0000  -3.1870   0.0000   0.0000   0.0000   0.3277
   9.600   1.6151   0.03147   0.02327  -0.1514  0.0835  1.0000  -3.2147   0.0000   0.0000   0.0000   0.3269
   9.700   1.6203   0.03192   0.02375  -0.1509  0.0823  1.0000  -3.2421   0.0000   0.0000   0.0000   0.3261
   9.800   1.6251   0.03240   0.02426  -0.1504  0.0807  1.0000  -3.2713   0.0000   0.0000   0.0000   0.3253
   9.900   1.6295   0.03292   0.02481  -0.1498  0.0784  1.0000  -3.3027   0.0000   0.0000   0.0000   0.3245
  10.000   1.6332   0.03350   0.02541  -0.1491  0.0751  1.0000  -3.3328   0.0000   0.0000   0.0000   0.3237
  10.100   1.6356   0.03421   0.02612  -0.1484  0.0701  1.0000  -3.3637   0.0000   0.0000   0.0000   0.3229
  10.200   1.6367   0.03503   0.02692  -0.1476  0.0665  1.0000  -3.3920   0.0000   0.0000   0.0000   0.3222
  10.300   1.6383   0.03582   0.02769  -0.1469  0.0652  1.0000  -3.4212   0.0000   0.0000   0.0000   0.3214
  10.400   1.6397   0.03663   0.02848  -0.1462  0.0638  1.0000  -3.4500   0.0000   0.0000   0.0000   0.3207
  10.500   1.6411   0.03746   0.02929  -0.1454  0.0623  1.0000  -3.4788   0.0000   0.0000   0.0000   0.3200
  10.600   1.6424   0.03830   0.03011  -0.1447  0.0608  1.0000  -3.5070   0.0000   0.0000   0.0000   0.3193
  10.700   1.6436   0.03916   0.03097  -0.1441  0.0592  1.0000  -3.5347   0.0000   0.0000   0.0000   0.3186
  10.800   1.6452   0.04000   0.03181  -0.1434  0.0576  1.0000  -3.5631   0.0000   0.0000   0.0000   0.3179
  10.900   1.6470   0.04082   0.03263  -0.1428  0.0561  1.0000  -3.5922   0.0000   0.0000   0.0000   0.3173
  11.000   1.6492   0.04161   0.03343  -0.1422  0.0545  1.0000  -3.6219   0.0000   0.0000   0.0000   0.3166
  11.100   1.6512   0.04242   0.03427  -0.1416  0.0531  1.0000  -3.6508   0.0000   0.0000   0.0000   0.3159
  11.200   1.6530   0.04325   0.03512  -0.1411  0.0518  1.0000  -3.6792   0.0000   0.0000   0.0000   0.3153
  11.300   1.6574   0.04382   0.03572  -0.1407  0.0513  1.0000  -3.7166   0.0000   0.0000   0.0000   0.3146
  11.400   1.6616   0.04441   0.03635  -0.1403  0.0506  1.0000  -3.7532   0.0000   0.0000   0.0000   0.3140
  11.500   1.6655   0.04504   0.03701  -0.1399  0.0497  1.0000  -3.7886   0.0000   0.0000   0.0000   0.3133
  11.600   1.6690   0.04571   0.03772  -0.1394  0.0486  1.0000  -3.8226   0.0000   0.0000   0.0000   0.3127
  11.700   1.6719   0.04646   0.03851  -0.1390  0.0475  1.0000  -3.8544   0.0000   0.0000   0.0000   0.3121
  11.800   1.6743   0.04727   0.03935  -0.1386  0.0462  1.0000  -3.8845   0.0000   0.0000   0.0000   0.3115
  11.900   1.6754   0.04821   0.04031  -0.1381  0.0441  1.0000  -3.9118   0.0000   0.0000   0.0000   0.3109
  12.000   1.6746   0.04938   0.04146  -0.1375  0.0414  1.0000  -3.9339   0.0000   0.0000   0.0000   0.3104
  12.100   1.6724   0.05070   0.04277  -0.1369  0.0386  1.0000  -3.9518   0.0000   0.0000   0.0000   0.3099
  12.200   1.6756   0.05146   0.04357  -0.1365  0.0359  1.0000  -3.9827   0.0000   0.0000   0.0000   0.3093
  12.300   1.6775   0.05237   0.04449  -0.1362  0.0330  1.0000  -4.0098   0.0000   0.0000   0.0000   0.3088
  12.400   1.6763   0.05364   0.04574  -0.1357  0.0266  1.0000  -4.0481   0.0000   0.0000   0.0000   0.3083
  12.500   1.6718   0.05530   0.04733  -0.1351  0.0226  1.0000  -4.0717   0.0000   0.0000   0.0000   0.3080
  12.600   1.6676   0.05695   0.04893  -0.1346  0.0186  1.0000  -4.0955   0.0000   0.0000   0.0000   0.3077
  12.700   1.6673   0.05818   0.05017  -0.1342  0.0166  1.0000  -4.1367   0.0000   0.0000   0.0000   0.3072
  12.800   1.6632   0.05988   0.05187  -0.1338  0.0096  1.0000  -4.1597   0.0000   0.0000   0.0000   0.3069
  12.900   1.6605   0.06142   0.05341  -0.1334  0.0089  1.0000  -4.1888   0.0000   0.0000   0.0000   0.3066
  13.000   1.6576   0.06300   0.05499  -0.1330  0.0084  1.0000  -4.2166   0.0000   0.0000   0.0000   0.3063
  13.100   1.6554   0.06452   0.05651  -0.1327  0.0078  1.0000  -4.2474   0.0000   0.0000   0.0000   0.3060
  13.200   1.6560   0.06569   0.05772  -0.1325  0.0070  1.0000  -4.2915   0.0000   0.0000   0.0000   0.3056
  13.300   1.6607   0.06637   0.05845  -0.1323  0.0061  1.0000  -4.3535   0.0000   0.0000   0.0000   0.3051
  13.400   1.6619   0.06749   0.05961  -0.1321  0.0058  1.0000  -4.3989   0.0000   0.0000   0.0000   0.3047
  13.500   1.6632   0.06859   0.06075  -0.1320  0.0055  1.0000  -4.4450   0.0000   0.0000   0.0000   0.3042
  13.600   1.6646   0.06969   0.06189  -0.1318  0.0053  1.0000  -4.4914   0.0000   0.0000   0.0000   0.3038
  13.700   1.6657   0.07083   0.06307  -0.1316  0.0051  1.0000  -4.5373   0.0000   0.0000   0.0000   0.3035
  13.800   1.6660   0.07210   0.06438  -0.1315  0.0050  1.0000  -4.5793   0.0000   0.0000   0.0000   0.3031
  13.900   1.6664   0.07336   0.06569  -0.1314  0.0049  1.0000  -4.6217   0.0000   0.0000   0.0000   0.3028
  14.000   1.6669   0.07460   0.06697  -0.1312  0.0048  1.0000  -4.6656   0.0000   0.0000   0.0000   0.3025
  14.100   1.6676   0.07581   0.06823  -0.1311  0.0048  1.0000  -4.7107   0.0000   0.0000   0.0000   0.3022
  14.200   1.6682   0.07703   0.06949  -0.1310  0.0047  1.0000  -4.7555   0.0000   0.0000   0.0000   0.3018
  14.300   1.6686   0.07826   0.07077  -0.1309  0.0046  1.0000  -4.7999   0.0000   0.0000   0.0000   0.3015
  14.400   1.6685   0.07957   0.07213  -0.1309  0.0046  1.0000  -4.8418   0.0000   0.0000   0.0000   0.3012
  14.500   1.6679   0.08099   0.07357  -0.1308  0.0046  1.0000  -4.8821   0.0000   0.0000   0.0000   0.3010
  14.600   1.6675   0.08238   0.07502  -0.1308  0.0045  1.0000  -4.9251   0.0000   0.0000   0.0000   0.3008
  14.700   1.6673   0.08374   0.07643  -0.1308  0.0045  1.0000  -4.9692   0.0000   0.0000   0.0000   0.3005
  14.800   1.6671   0.08509   0.07784  -0.1308  0.0045  1.0000  -5.0137   0.0000   0.0000   0.0000   0.3003
  14.900   1.6671   0.08646   0.07925  -0.1308  0.0045  1.0000  -5.0587   0.0000   0.0000   0.0000   0.3001
  15.000   1.6663   0.08796   0.08081  -0.1309  0.0045  1.0000  -5.0994   0.0000   0.0000   0.0000   0.2999
  15.100   1.6653   0.08950   0.08241  -0.1310  0.0045  1.0000  -5.1389   0.0000   0.0000   0.0000   0.2998
  15.200   1.6646   0.09099   0.08394  -0.1311  0.0045  1.0000  -5.1804   0.0000   0.0000   0.0000   0.2997
  15.300   1.6643   0.09243   0.08543  -0.1312  0.0045  1.0000  -5.2235   0.0000   0.0000   0.0000   0.2995
  15.400   1.6641   0.09386   0.08691  -0.1313  0.0045  1.0000  -5.2674   0.0000   0.0000   0.0000   0.2993
  15.500   1.6638   0.09529   0.08840  -0.1315  0.0044  1.0000  -5.3110   0.0000   0.0000   0.0000   0.2992
  15.600   1.6633   0.09678   0.08994  -0.1316  0.0044  1.0000  -5.3530   0.0000   0.0000   0.0000   0.2990
  15.700   1.6619   0.09842   0.09164  -0.1319  0.0044  1.0000  -5.3898   0.0000   0.0000   0.0000   0.2990
  15.800   1.6608   0.10004   0.09331  -0.1321  0.0044  1.0000  -5.4279   0.0000   0.0000   0.0000   0.2990
  15.900   1.6600   0.10159   0.09492  -0.1324  0.0044  1.0000  -5.4680   0.0000   0.0000   0.0000   0.2989
  16.000   1.6593   0.10312   0.09651  -0.1326  0.0044  1.0000  -5.5086   0.0000   0.0000   0.0000   0.2988
  16.100   1.6587   0.10465   0.09809  -0.1329  0.0044  1.0000  -5.5492   0.0000   0.0000   0.0000   0.2988
  16.200   1.6576   0.10625   0.09974  -0.1332  0.0044  1.0000  -5.5874   0.0000   0.0000   0.0000   0.2988
  16.300   1.6560   0.10797   0.10155  -0.1336  0.0044  1.0000  -5.6236   0.0000   0.0000   0.0000   0.2988
  16.400   1.6548   0.10963   0.10327  -0.1339  0.0044  1.0000  -5.6604   0.0000   0.0000   0.0000   0.2989
  16.500   1.6538   0.11123   0.10494  -0.1343  0.0044  1.0000  -5.6986   0.0000   0.0000   0.0000   0.2989
  16.600   1.6529   0.11281   0.10657  -0.1347  0.0044  1.0000  -5.7372   0.0000   0.0000   0.0000   0.2989
  16.700   1.6521   0.11438   0.10820  -0.1350  0.0044  1.0000  -5.7757   0.0000   0.0000   0.0000   0.2989
  16.800   1.6511   0.11597   0.10984  -0.1354  0.0044  1.0000  -5.8135   0.0000   0.0000   0.0000   0.2989
  16.900   1.6496   0.11769   0.11162  -0.1359  0.0044  1.0000  -5.8472   0.0000   0.0000   0.0000   0.2990
  17.000   1.6477   0.11950   0.11349  -0.1365  0.0044  1.0000  -5.8774   0.0000   0.0000   0.0000   0.2992
  17.100   1.6460   0.12124   0.11529  -0.1370  0.0044  1.0000  -5.9098   0.0000   0.0000   0.0000   0.2994
  17.200   1.6446   0.12292   0.11704  -0.1376  0.0044  1.0000  -5.9433   0.0000   0.0000   0.0000   0.2995
  17.300   1.6433   0.12460   0.11877  -0.1381  0.0044  1.0000  -5.9769   0.0000   0.0000   0.0000   0.2997
  17.400   1.6419   0.12630   0.12054  -0.1387  0.0044  1.0000  -6.0098   0.0000   0.0000   0.0000   0.2998
  17.500   1.6395   0.12821   0.12251  -0.1394  0.0044  1.0000  -6.0355   0.0000   0.0000   0.0000   0.3001
  17.600   1.6374   0.13006   0.12443  -0.1401  0.0044  1.0000  -6.0624   0.0000   0.0000   0.0000   0.3004
  17.700   1.6356   0.13184   0.12626  -0.1407  0.0044  1.0000  -6.0916   0.0000   0.0000   0.0000   0.3006
  17.800   1.6340   0.13357   0.12806  -0.1414  0.0044  1.0000  -6.1217   0.0000   0.0000   0.0000   0.3009
  17.900   1.6326   0.13531   0.12985  -0.1421  0.0044  1.0000  -6.1521   0.0000   0.0000   0.0000   0.3011
  18.000   1.6310   0.13706   0.13167  -0.1428  0.0044  1.0000  -6.1814   0.0000   0.0000   0.0000   0.3014
  18.100   1.6286   0.13897   0.13364  -0.1436  0.0044  1.0000  -6.2047   0.0000   0.0000   0.0000   0.3017
  18.200   1.6257   0.14100   0.13574  -0.1445  0.0044  1.0000  -6.2234   0.0000   0.0000   0.0000   0.3022
  18.300   1.6233   0.14294   0.13774  -0.1454  0.0044  1.0000  -6.2448   0.0000   0.0000   0.0000   0.3026
  18.400   1.6212   0.14479   0.13965  -0.1463  0.0044  1.0000  -6.2682   0.0000   0.0000   0.0000   0.3030
  18.500   1.6192   0.14658   0.14151  -0.1472  0.0044  1.0000  -6.2914   0.0000   0.0000   0.0000   0.3034
  18.600   1.6167   0.14846   0.14345  -0.1482  0.0044  1.0000  -6.3100   0.0000   0.0000   0.0000   0.3039
  18.700   1.6134   0.15049   0.14555  -0.1493  0.0044  1.0000  -6.3223   0.0000   0.0000   0.0000   0.3046
  18.800   1.6108   0.15240   0.14752  -0.1503  0.0044  1.0000  -6.3388   0.0000   0.0000   0.0000   0.3051
  18.900   1.6086   0.15427   0.14945  -0.1514  0.0045  1.0000  -6.3573   0.0000   0.0000   0.0000   0.3056
  19.000   1.6063   0.15615   0.15140  -0.1524  0.0045  1.0000  -6.3754   0.0000   0.0000   0.0000   0.3061
  19.100   1.6038   0.15809   0.15340  -0.1535  0.0045  1.0000  -6.3915   0.0000   0.0000   0.0000   0.3067
  19.200   1.6007   0.16021   0.15558  -0.1547  0.0045  1.0000  -6.4013   0.0000   0.0000   0.0000   0.3074
  19.300   1.5967   0.16254   0.15798  -0.1561  0.0045  1.0000  -6.4039   0.0000   0.0000   0.0000   0.3082
  19.400   1.5935   0.16476   0.16026  -0.1573  0.0045  1.0000  -6.4111   0.0000   0.0000   0.0000   0.3090
  19.500   1.5904   0.16696   0.16253  -0.1586  0.0045  1.0000  -6.4190   0.0000   0.0000   0.0000   0.3097
  19.600   1.5872   0.16921   0.16484  -0.1599  0.0045  1.0000  -6.4251   0.0000   0.0000   0.0000   0.3105
  19.700   1.5827   0.17179   0.16749  -0.1614  0.0045  1.0000  -6.4200   0.0000   0.0000   0.0000   0.3115
  19.800   1.5790   0.17424   0.17001  -0.1628  0.0045  1.0000  -6.4200   0.0000   0.0000   0.0000   0.3124
  19.900   1.5757   0.17661   0.17243  -0.1642  0.0045  1.0000  -6.4229   0.0000   0.0000   0.0000   0.3132
  20.000   1.5725   0.17898   0.17487  -0.1655  0.0045  1.0000  -6.4257   0.0000   0.0000   0.0000   0.3140


