xflr5 v6.59

 Calculated polar for: WORTMANN FX 63-137 AIRFOIL

 1 1 Reynolds number fixed          Mach number fixed         

 xtrf =   1.000 (top)        1.000 (bottom)
 Mach =   0.000     Re =     1.600 e 6     Ncrit =   9.000

  alpha     CL        CD       CDp       Cm    Top Xtr Bot Xtr   Cpmin    Chinge    XCp    
 ------- -------- --------- --------- -------- ------- ------- -------- --------- ---------
   0.000   0.8932   0.01016   0.00249  -0.2023  0.2531  0.0202  -1.1269   0.0000   0.0000   0.0000   0.4746
   0.100   0.9032   0.01029   0.00256  -0.2021  0.2423  0.0202  -1.1351   0.0000   0.0000   0.0000   0.4718
   0.200   0.9136   0.01040   0.00263  -0.2020  0.2350  0.0202  -1.1377   0.0000   0.0000   0.0000   0.4689
   0.300   0.9244   0.01048   0.00267  -0.2019  0.2293  0.0202  -1.1428   0.0000   0.0000   0.0000   0.4661
   0.400   0.9354   0.01053   0.00271  -0.2019  0.2242  0.0202  -1.1529   0.0000   0.0000   0.0000   0.4634
   0.500   0.9466   0.01056   0.00274  -0.2019  0.2217  0.0203  -1.1652   0.0000   0.0000   0.0000   0.4607
   0.600   0.9579   0.01059   0.00277  -0.2020  0.2207  0.0204  -1.1777   0.0000   0.0000   0.0000   0.4581
   0.700   0.9692   0.01062   0.00280  -0.2020  0.2193  0.0206  -1.1903   0.0000   0.0000   0.0000   0.4555
   0.800   0.9803   0.01066   0.00283  -0.2020  0.2172  0.0210  -1.2031   0.0000   0.0000   0.0000   0.4530
   0.900   0.9897   0.01078   0.00283  -0.2016  0.2151  0.0246  -1.2149   0.0000   0.0000   0.0000   0.4505
   1.000   1.0013   0.01086   0.00304  -0.2018  0.1990  0.0368  -1.2325   0.0000   0.0000   0.0000   0.4482
   1.100   1.0116   0.01096   0.00311  -0.2017  0.1928  0.0378  -1.2448   0.0000   0.0000   0.0000   0.4459
   1.200   1.0223   0.01103   0.00316  -0.2016  0.1894  0.0383  -1.2552   0.0000   0.0000   0.0000   0.4436
   1.300   1.0329   0.01111   0.00322  -0.2015  0.1860  0.0396  -1.2638   0.0000   0.0000   0.0000   0.4414
   1.400   1.0435   0.01119   0.00328  -0.2014  0.1826  0.0413  -1.2739   0.0000   0.0000   0.0000   0.4392
   1.500   1.0542   0.01126   0.00333  -0.2013  0.1787  0.0435  -1.2883   0.0000   0.0000   0.0000   0.4370
   1.600   1.0649   0.01133   0.00338  -0.2013  0.1746  0.0463  -1.3026   0.0000   0.0000   0.0000   0.4349
   1.700   1.0758   0.01138   0.00344  -0.2012  0.1710  0.0485  -1.3170   0.0000   0.0000   0.0000   0.4328
   1.800   1.0869   0.01142   0.00349  -0.2013  0.1698  0.0506  -1.3319   0.0000   0.0000   0.0000   0.4307
   1.900   1.0983   0.01144   0.00354  -0.2013  0.1690  0.0627  -1.3472   0.0000   0.0000   0.0000   0.4287
   2.000   1.1093   0.01148   0.00358  -0.2013  0.1680  0.0652  -1.3624   0.0000   0.0000   0.0000   0.4268
   2.100   1.1203   0.01153   0.00363  -0.2013  0.1667  0.0672  -1.3777   0.0000   0.0000   0.0000   0.4248
   2.200   1.1311   0.01158   0.00368  -0.2013  0.1644  0.0739  -1.3933   0.0000   0.0000   0.0000   0.4229
   2.300   1.1420   0.01166   0.00378  -0.2013  0.1556  0.0999  -1.4115   0.0000   0.0000   0.0000   0.4211
   2.400   1.1566   0.01161   0.00395  -0.2024  0.1443  0.2462  -1.4317   0.0000   0.0000   0.0000   0.4197
   2.500   1.1680   0.01165   0.00403  -0.2026  0.1414  0.2748  -1.4452   0.0000   0.0000   0.0000   0.4180
   2.600   1.1795   0.01170   0.00411  -0.2028  0.1384  0.3073  -1.4571   0.0000   0.0000   0.0000   0.4164
   2.700   1.1907   0.01176   0.00420  -0.2029  0.1355  0.3306  -1.4743   0.0000   0.0000   0.0000   0.4147
   2.800   1.2023   0.01179   0.00429  -0.2031  0.1321  0.3648  -1.4928   0.0000   0.0000   0.0000   0.4131
   2.900   1.2131   0.01185   0.00436  -0.2031  0.1286  0.3778  -1.5121   0.0000   0.0000   0.0000   0.4114
   3.000   1.2243   0.01190   0.00444  -0.2031  0.1255  0.3953  -1.5342   0.0000   0.0000   0.0000   0.4098
   3.100   1.2355   0.01194   0.00451  -0.2032  0.1239  0.4126  -1.5565   0.0000   0.0000   0.0000   0.4082
   3.200   1.2466   0.01198   0.00459  -0.2032  0.1230  0.4283  -1.5789   0.0000   0.0000   0.0000   0.4066
   3.300   1.2571   0.01205   0.00466  -0.2032  0.1213  0.4350  -1.6007   0.0000   0.0000   0.0000   0.4051
   3.400   1.2676   0.01214   0.00476  -0.2031  0.1164  0.4472  -1.6227   0.0000   0.0000   0.0000   0.4035
   3.500   1.2753   0.01244   0.00498  -0.2025  0.1003  0.4564  -1.6422   0.0000   0.0000   0.0000   0.4020
   3.600   1.2847   0.01260   0.00510  -0.2022  0.0956  0.4637  -1.6633   0.0000   0.0000   0.0000   0.4004
   3.700   1.2943   0.01274   0.00522  -0.2020  0.0900  0.4702  -1.6844   0.0000   0.0000   0.0000   0.3989
   3.800   1.3046   0.01283   0.00533  -0.2019  0.0851  0.4799  -1.7060   0.0000   0.0000   0.0000   0.3975
   3.900   1.3149   0.01291   0.00541  -0.2017  0.0839  0.4849  -1.7347   0.0000   0.0000   0.0000   0.3960
   4.000   1.3259   0.01294   0.00547  -0.2017  0.0878  0.4891  -1.7684   0.0000   0.0000   0.0000   0.3946
   4.100   1.3360   0.01302   0.00557  -0.2015  0.0848  0.4949  -1.8010   0.0000   0.0000   0.0000   0.3931
   4.200   1.3462   0.01310   0.00565  -0.2014  0.0840  0.4986  -1.8341   0.0000   0.0000   0.0000   0.3917
   4.300   1.3563   0.01319   0.00574  -0.2012  0.0832  0.5029  -1.8674   0.0000   0.0000   0.0000   0.3903
   4.400   1.3666   0.01327   0.00584  -0.2011  0.0818  0.5102  -1.9009   0.0000   0.0000   0.0000   0.3890
   4.500   1.3766   0.01336   0.00595  -0.2009  0.0796  0.5184  -1.9344   0.0000   0.0000   0.0000   0.3877
   4.600   1.3846   0.01361   0.00616  -0.2004  0.0672  0.5264  -1.9646   0.0000   0.0000   0.0000   0.3863
   4.700   1.3939   0.01375   0.00628  -0.2001  0.0652  0.5325  -1.9969   0.0000   0.0000   0.0000   0.3849
   4.800   1.4036   0.01387   0.00640  -0.1999  0.0635  0.5446  -2.0301   0.0000   0.0000   0.0000   0.3836
   4.900   1.4132   0.01399   0.00652  -0.1996  0.0617  0.5550  -2.0631   0.0000   0.0000   0.0000   0.3823
   5.000   1.4226   0.01411   0.00664  -0.1993  0.0598  0.5619  -2.0960   0.0000   0.0000   0.0000   0.3811
   5.100   1.4319   0.01423   0.00675  -0.1990  0.0577  0.5653  -2.1288   0.0000   0.0000   0.0000   0.3798
   5.200   1.4415   0.01434   0.00686  -0.1988  0.0556  0.5714  -2.1621   0.0000   0.0000   0.0000   0.3785
   5.300   1.4510   0.01445   0.00698  -0.1985  0.0538  0.5777  -2.1955   0.0000   0.0000   0.0000   0.3773
   5.400   1.4606   0.01456   0.00710  -0.1983  0.0521  0.5834  -2.2289   0.0000   0.0000   0.0000   0.3761
   5.500   1.4701   0.01466   0.00722  -0.1980  0.0516  0.5891  -2.2638   0.0000   0.0000   0.0000   0.3748
   5.600   1.4795   0.01476   0.00734  -0.1977  0.0513  0.5945  -2.2991   0.0000   0.0000   0.0000   0.3736
   5.800   1.4983   0.01498   0.00759  -0.1972  0.0501  0.6100  -2.3698   0.0000   0.0000   0.0000   0.3713
   5.900   1.5075   0.01510   0.00773  -0.1968  0.0493  0.6183  -2.4050   0.0000   0.0000   0.0000   0.3701
   6.000   1.5164   0.01523   0.00787  -0.1965  0.0484  0.6251  -2.4398   0.0000   0.0000   0.0000   0.3689
   6.100   1.5236   0.01546   0.00810  -0.1958  0.0445  0.6309  -2.4738   0.0000   0.0000   0.0000   0.3677
   6.200   1.5317   0.01563   0.00828  -0.1953  0.0420  0.6386  -2.5079   0.0000   0.0000   0.0000   0.3665
   6.300   1.5399   0.01578   0.00843  -0.1948  0.0399  0.6441  -2.5419   0.0000   0.0000   0.0000   0.3654
   6.400   1.5480   0.01591   0.00858  -0.1943  0.0384  0.6488  -2.5752   0.0000   0.0000   0.0000   0.3642
   6.500   1.5558   0.01604   0.00871  -0.1937  0.0380  0.6532  -2.6090   0.0000   0.0000   0.0000   0.3630
   6.600   1.5634   0.01616   0.00884  -0.1930  0.0377  0.6571  -2.6428   0.0000   0.0000   0.0000   0.3619
   6.700   1.5711   0.01629   0.00897  -0.1924  0.0374  0.6602  -2.6768   0.0000   0.0000   0.0000   0.3607
   6.900   1.5866   0.01656   0.00926  -0.1913  0.0365  0.6714  -2.7459   0.0000   0.0000   0.0000   0.3584
   7.000   1.5941   0.01670   0.00942  -0.1906  0.0358  0.6763  -2.7805   0.0000   0.0000   0.0000   0.3573
   7.100   1.6014   0.01686   0.00958  -0.1900  0.0349  0.6808  -2.8152   0.0000   0.0000   0.0000   0.3562
   7.200   1.6085   0.01703   0.00975  -0.1893  0.0338  0.6849  -2.8498   0.0000   0.0000   0.0000   0.3551
   7.300   1.6100   0.01749   0.01013  -0.1877  0.0256  0.6882  -2.8836   0.0000   0.0000   0.0000   0.3538
   7.400   1.6150   0.01777   0.01039  -0.1866  0.0226  0.6910  -2.9068   0.0000   0.0000   0.0000   0.3526
   7.500   1.6200   0.01806   0.01067  -0.1856  0.0197  0.6962  -2.9243   0.0000   0.0000   0.0000   0.3515
   7.600   1.6266   0.01826   0.01088  -0.1849  0.0171  0.7019  -2.9506   0.0000   0.0000   0.0000   0.3504
   7.700   1.6334   0.01846   0.01109  -0.1842  0.0162  0.7071  -2.9822   0.0000   0.0000   0.0000   0.3493
   7.800   1.6379   0.01879   0.01142  -0.1831  0.0127  0.7120  -3.0126   0.0000   0.0000   0.0000   0.3482
   7.900   1.6370   0.01943   0.01205  -0.1811  0.0045  0.7164  -3.0359   0.0000   0.0000   0.0000   0.3469
   8.000   1.6430   0.01968   0.01231  -0.1803  0.0043  0.7208  -3.0686   0.0000   0.0000   0.0000   0.3458
   8.100   1.6492   0.01993   0.01258  -0.1796  0.0041  0.7280  -3.1019   0.0000   0.0000   0.0000   0.3448
   8.200   1.6554   0.02018   0.01284  -0.1789  0.0038  0.7356  -3.1350   0.0000   0.0000   0.0000   0.3437
   8.300   1.6617   0.02041   0.01308  -0.1781  0.0036  0.7428  -3.1671   0.0000   0.0000   0.0000   0.3427
   8.400   1.6680   0.02064   0.01333  -0.1774  0.0032  0.7491  -3.1980   0.0000   0.0000   0.0000   0.3417
   8.500   1.6745   0.02087   0.01358  -0.1768  0.0028  0.7575  -3.2292   0.0000   0.0000   0.0000   0.3407
   8.600   1.6810   0.02111   0.01388  -0.1761  0.0033  0.7664  -3.2636   0.0000   0.0000   0.0000   0.3398
   8.700   1.6872   0.02137   0.01415  -0.1754  0.0031  0.7748  -3.2953   0.0000   0.0000   0.0000   0.3388
   8.800   1.6935   0.02162   0.01443  -0.1748  0.0027  0.7844  -3.3265   0.0000   0.0000   0.0000   0.3378
   8.900   1.7001   0.02187   0.01470  -0.1742  0.0022  0.7954  -3.3581   0.0000   0.0000   0.0000   0.3369
   9.600   1.7352   0.02381   0.01702  -0.1682  0.0014  1.0000  -3.5694   0.0000   0.0000   0.0000   0.3301
   9.700   1.7405   0.02417   0.01739  -0.1675  0.0014  1.0000  -3.6004   0.0000   0.0000   0.0000   0.3292
   9.800   1.7458   0.02453   0.01777  -0.1668  0.0014  1.0000  -3.6316   0.0000   0.0000   0.0000   0.3283
   9.900   1.7509   0.02491   0.01817  -0.1661  0.0014  1.0000  -3.6676   0.0000   0.0000   0.0000   0.3274
  10.000   1.7556   0.02531   0.01860  -0.1654  0.0014  1.0000  -3.7058   0.0000   0.0000   0.0000   0.3265
  10.100   1.7603   0.02571   0.01903  -0.1646  0.0014  1.0000  -3.7440   0.0000   0.0000   0.0000   0.3257
  10.200   1.7650   0.02612   0.01946  -0.1639  0.0014  1.0000  -3.7823   0.0000   0.0000   0.0000   0.3248
  10.300   1.7694   0.02656   0.01992  -0.1631  0.0014  1.0000  -3.8198   0.0000   0.0000   0.0000   0.3240
  10.400   1.7735   0.02702   0.02041  -0.1624  0.0014  1.0000  -3.8567   0.0000   0.0000   0.0000   0.3231
  10.500   1.7777   0.02749   0.02090  -0.1616  0.0014  1.0000  -3.8938   0.0000   0.0000   0.0000   0.3223
  10.600   1.7821   0.02796   0.02139  -0.1609  0.0014  1.0000  -3.9312   0.0000   0.0000   0.0000   0.3215
  10.700   1.7863   0.02845   0.02190  -0.1602  0.0015  1.0000  -3.9682   0.0000   0.0000   0.0000   0.3207
  10.800   1.7901   0.02898   0.02245  -0.1595  0.0015  1.0000  -4.0041   0.0000   0.0000   0.0000   0.3199
  10.900   1.7939   0.02951   0.02301  -0.1588  0.0015  1.0000  -4.0400   0.0000   0.0000   0.0000   0.3191
  11.000   1.7978   0.03005   0.02357  -0.1581  0.0015  1.0000  -4.0765   0.0000   0.0000   0.0000   0.3183
  11.100   1.8016   0.03060   0.02416  -0.1574  0.0016  1.0000  -4.1121   0.0000   0.0000   0.0000   0.3175
  11.200   1.8047   0.03121   0.02481  -0.1567  0.0016  1.0000  -4.1464   0.0000   0.0000   0.0000   0.3167
  11.300   1.8078   0.03183   0.02545  -0.1559  0.0016  1.0000  -4.1809   0.0000   0.0000   0.0000   0.3160
  11.400   1.8112   0.03244   0.02608  -0.1553  0.0016  1.0000  -4.2162   0.0000   0.0000   0.0000   0.3152
  11.500   1.8147   0.03305   0.02672  -0.1546  0.0017  1.0000  -4.2518   0.0000   0.0000   0.0000   0.3145
  11.600   1.8175   0.03372   0.02741  -0.1539  0.0017  1.0000  -4.2860   0.0000   0.0000   0.0000   0.3138
  11.700   1.8200   0.03442   0.02814  -0.1532  0.0017  1.0000  -4.3192   0.0000   0.0000   0.0000   0.3131
  11.800   1.8228   0.03511   0.02886  -0.1526  0.0018  1.0000  -4.3612   0.0000   0.0000   0.0000   0.3124
  11.900   1.8257   0.03579   0.02956  -0.1519  0.0018  1.0000  -4.4268   0.0000   0.0000   0.0000   0.3117
  12.000   1.8284   0.03650   0.03030  -0.1513  0.0019  1.0000  -4.4916   0.0000   0.0000   0.0000   0.3110
  12.100   1.8303   0.03729   0.03112  -0.1506  0.0019  1.0000  -4.5529   0.0000   0.0000   0.0000   0.3103
  12.200   1.8324   0.03807   0.03192  -0.1500  0.0019  1.0000  -4.6158   0.0000   0.0000   0.0000   0.3096
  12.300   1.8349   0.03882   0.03270  -0.1494  0.0020  1.0000  -4.6803   0.0000   0.0000   0.0000   0.3090
  12.400   1.8374   0.03958   0.03348  -0.1488  0.0020  1.0000  -4.7454   0.0000   0.0000   0.0000   0.3083
  12.500   1.8396   0.04036   0.03429  -0.1482  0.0021  1.0000  -4.8092   0.0000   0.0000   0.0000   0.3077
  12.600   1.8407   0.04127   0.03523  -0.1476  0.0022  1.0000  -4.8673   0.0000   0.0000   0.0000   0.3071
  12.700   1.8418   0.04217   0.03616  -0.1469  0.0022  1.0000  -4.9255   0.0000   0.0000   0.0000   0.3065
  12.800   1.8431   0.04304   0.03706  -0.1463  0.0023  1.0000  -4.9846   0.0000   0.0000   0.0000   0.3058
  12.900   1.8446   0.04391   0.03796  -0.1457  0.0024  1.0000  -5.0437   0.0000   0.0000   0.0000   0.3052
  13.000   1.8453   0.04488   0.03896  -0.1451  0.0025  1.0000  -5.0983   0.0000   0.0000   0.0000   0.3046
  13.100   1.8453   0.04596   0.04008  -0.1445  0.0026  1.0000  -5.1472   0.0000   0.0000   0.0000   0.3041
  13.200   1.8461   0.04696   0.04112  -0.1440  0.0027  1.0000  -5.1970   0.0000   0.0000   0.0000   0.3035
  13.300   1.8486   0.04780   0.04197  -0.1435  0.0029  1.0000  -5.2433   0.0000   0.0000   0.0000   0.3029
  13.400   1.8560   0.04813   0.04226  -0.1433  0.0034  1.0000  -5.2886   0.0000   0.0000   0.0000   0.3023
  13.500   1.8641   0.04836   0.04247  -0.1431  0.0038  1.0000  -5.3492   0.0000   0.0000   0.0000   0.3016
  13.600   1.8740   0.04841   0.04252  -0.1430  0.0042  1.0000  -5.4245   0.0000   0.0000   0.0000   0.3009
  13.700   1.8840   0.04846   0.04258  -0.1429  0.0044  1.0000  -5.4982   0.0000   0.0000   0.0000   0.3002


