xflr5 v6.59

 Calculated polar for: WORTMANN FX 63-137 AIRFOIL

 1 1 Reynolds number fixed          Mach number fixed         

 xtrf =   1.000 (top)        1.000 (bottom)
 Mach =   0.000     Re =     4.300 e 6     Ncrit =   9.000

  alpha     CL        CD       CDp       Cm    Top Xtr Bot Xtr   Cpmin    Chinge    XCp    
 ------- -------- --------- --------- -------- ------- ------- -------- --------- ---------
   0.200   0.9309   0.00954   0.00256  -0.2060  0.1222  0.0184  -1.1583   0.0000   0.0000   0.0000   0.4692
   0.300   0.9422   0.00956   0.00258  -0.2061  0.1217  0.0182  -1.1688   0.0000   0.0000   0.0000   0.4664
   0.400   0.9536   0.00959   0.00261  -0.2061  0.1211  0.0180  -1.1792   0.0000   0.0000   0.0000   0.4637
   0.500   0.9648   0.00962   0.00264  -0.2061  0.1202  0.0178  -1.1896   0.0000   0.0000   0.0000   0.4610
   0.600   0.9762   0.00965   0.00267  -0.2061  0.1197  0.0176  -1.2000   0.0000   0.0000   0.0000   0.4585
   0.700   0.9858   0.00983   0.00279  -0.2059  0.1032  0.0175  -1.2116   0.0000   0.0000   0.0000   0.4560
   0.800   0.9969   0.00987   0.00283  -0.2058  0.1021  0.0174  -1.2239   0.0000   0.0000   0.0000   0.4535
   0.900   1.0080   0.00991   0.00287  -0.2058  0.1014  0.0175  -1.2362   0.0000   0.0000   0.0000   0.4511
   1.000   1.0191   0.00996   0.00291  -0.2058  0.1004  0.0175  -1.2485   0.0000   0.0000   0.0000   0.4487
   1.100   1.0302   0.01001   0.00295  -0.2058  0.0993  0.0177  -1.2608   0.0000   0.0000   0.0000   0.4464
   1.200   1.0412   0.01006   0.00299  -0.2058  0.0982  0.0211  -1.2730   0.0000   0.0000   0.0000   0.4441
   1.300   1.0520   0.01012   0.00302  -0.2057  0.0972  0.0244  -1.2871   0.0000   0.0000   0.0000   0.4418
   1.400   1.0632   0.01015   0.00308  -0.2057  0.0960  0.0259  -1.3021   0.0000   0.0000   0.0000   0.4397
   1.500   1.0746   0.01018   0.00312  -0.2058  0.0949  0.0341  -1.3172   0.0000   0.0000   0.0000   0.4375
   1.600   1.0857   0.01022   0.00316  -0.2058  0.0936  0.0355  -1.3322   0.0000   0.0000   0.0000   0.4354
   1.700   1.0968   0.01026   0.00320  -0.2058  0.0923  0.0363  -1.3473   0.0000   0.0000   0.0000   0.4334
   1.800   1.1078   0.01031   0.00324  -0.2058  0.0909  0.0370  -1.3623   0.0000   0.0000   0.0000   0.4313
   1.900   1.1189   0.01035   0.00328  -0.2058  0.0895  0.0375  -1.3774   0.0000   0.0000   0.0000   0.4294
   2.000   1.1299   0.01039   0.00332  -0.2058  0.0882  0.0379  -1.3925   0.0000   0.0000   0.0000   0.4274
   2.100   1.1410   0.01043   0.00336  -0.2058  0.0870  0.0382  -1.4076   0.0000   0.0000   0.0000   0.4255
   2.200   1.1520   0.01047   0.00340  -0.2057  0.0859  0.0395  -1.4227   0.0000   0.0000   0.0000   0.4236
   2.300   1.1631   0.01051   0.00345  -0.2057  0.0850  0.0458  -1.4378   0.0000   0.0000   0.0000   0.4218
   2.400   1.1740   0.01056   0.00351  -0.2057  0.0837  0.0480  -1.4528   0.0000   0.0000   0.0000   0.4200
   2.500   1.1847   0.01063   0.00357  -0.2056  0.0816  0.0502  -1.4677   0.0000   0.0000   0.0000   0.4182
   2.600   1.1936   0.01086   0.00376  -0.2052  0.0647  0.0631  -1.4896   0.0000   0.0000   0.0000   0.4164
   2.700   1.2037   0.01097   0.00384  -0.2051  0.0605  0.0662  -1.5088   0.0000   0.0000   0.0000   0.4147
   2.800   1.2144   0.01104   0.00389  -0.2050  0.0576  0.0731  -1.5272   0.0000   0.0000   0.0000   0.4130
   2.900   1.2252   0.01110   0.00395  -0.2050  0.0547  0.0796  -1.5458   0.0000   0.0000   0.0000   0.4113
   3.000   1.2360   0.01115   0.00401  -0.2049  0.0526  0.0827  -1.5644   0.0000   0.0000   0.0000   0.4097
   3.100   1.2473   0.01119   0.00407  -0.2050  0.0516  0.1000  -1.5860   0.0000   0.0000   0.0000   0.4081
   3.200   1.2580   0.01124   0.00412  -0.2049  0.0513  0.1013  -1.6090   0.0000   0.0000   0.0000   0.4065
   3.300   1.2688   0.01130   0.00418  -0.2049  0.0509  0.1029  -1.6322   0.0000   0.0000   0.0000   0.4049
   3.400   1.2794   0.01136   0.00424  -0.2048  0.0505  0.1056  -1.6555   0.0000   0.0000   0.0000   0.4034
   3.500   1.2901   0.01141   0.00429  -0.2047  0.0500  0.1121  -1.6790   0.0000   0.0000   0.0000   0.4018
   3.600   1.3009   0.01147   0.00436  -0.2047  0.0493  0.1179  -1.7029   0.0000   0.0000   0.0000   0.4004
   3.700   1.3115   0.01153   0.00443  -0.2046  0.0483  0.1233  -1.7270   0.0000   0.0000   0.0000   0.3989
   3.800   1.3225   0.01159   0.00450  -0.2046  0.0472  0.1437  -1.7517   0.0000   0.0000   0.0000   0.3975
   3.900   1.3338   0.01159   0.00453  -0.2047  0.0502  0.1437  -1.7748   0.0000   0.0000   0.0000   0.3960
   4.000   1.3444   0.01165   0.00459  -0.2046  0.0499  0.1454  -1.8086   0.0000   0.0000   0.0000   0.3946
   4.100   1.3549   0.01172   0.00466  -0.2045  0.0494  0.1516  -1.8427   0.0000   0.0000   0.0000   0.3932
   4.200   1.3655   0.01178   0.00474  -0.2044  0.0483  0.1631  -1.8773   0.0000   0.0000   0.0000   0.3918
   4.300   1.3765   0.01185   0.00484  -0.2045  0.0462  0.1928  -1.9126   0.0000   0.0000   0.0000   0.3905
   4.400   1.3863   0.01196   0.00494  -0.2043  0.0437  0.1949  -1.9462   0.0000   0.0000   0.0000   0.3892
   4.500   1.3965   0.01206   0.00503  -0.2041  0.0410  0.2064  -1.9804   0.0000   0.0000   0.0000   0.3878
   4.600   1.4073   0.01212   0.00512  -0.2041  0.0386  0.2224  -2.0155   0.0000   0.0000   0.0000   0.3866
   4.700   1.4184   0.01216   0.00519  -0.2042  0.0381  0.2487  -2.0518   0.0000   0.0000   0.0000   0.3853
   4.800   1.4292   0.01221   0.00527  -0.2042  0.0379  0.2655  -2.0877   0.0000   0.0000   0.0000   0.3841
   4.900   1.4409   0.01223   0.00535  -0.2044  0.0377  0.3055  -2.1254   0.0000   0.0000   0.0000   0.3829
   5.000   1.4513   0.01231   0.00543  -0.2043  0.0375  0.3126  -2.1612   0.0000   0.0000   0.0000   0.3817
   5.100   1.4624   0.01235   0.00552  -0.2044  0.0372  0.3367  -2.1984   0.0000   0.0000   0.0000   0.3805
   5.200   1.4736   0.01239   0.00561  -0.2045  0.0368  0.3680  -2.2361   0.0000   0.0000   0.0000   0.3794
   5.300   1.4846   0.01244   0.00570  -0.2046  0.0364  0.3942  -2.2738   0.0000   0.0000   0.0000   0.3782
   5.400   1.4960   0.01249   0.00581  -0.2048  0.0357  0.4387  -2.3126   0.0000   0.0000   0.0000   0.3772
   5.500   1.5053   0.01267   0.00601  -0.2045  0.0301  0.4697  -2.3516   0.0000   0.0000   0.0000   0.3760
   5.600   1.5141   0.01286   0.00618  -0.2041  0.0241  0.4850  -2.3835   0.0000   0.0000   0.0000   0.3748
   5.700   1.5229   0.01303   0.00634  -0.2038  0.0208  0.4913  -2.4079   0.0000   0.0000   0.0000   0.3736
   5.800   1.5324   0.01316   0.00645  -0.2035  0.0175  0.4953  -2.4386   0.0000   0.0000   0.0000   0.3724
   6.000   1.5464   0.01374   0.00700  -0.2020  0.0040  0.4999  -2.5112   0.0000   0.0000   0.0000   0.3699
   6.100   1.5557   0.01386   0.00712  -0.2017  0.0037  0.5037  -2.5471   0.0000   0.0000   0.0000   0.3688
   6.200   1.5651   0.01397   0.00724  -0.2014  0.0035  0.5093  -2.5833   0.0000   0.0000   0.0000   0.3677
   6.300   1.5745   0.01408   0.00735  -0.2011  0.0033  0.5144  -2.6196   0.0000   0.0000   0.0000   0.3666
   6.400   1.5839   0.01418   0.00747  -0.2008  0.0032  0.5188  -2.6559   0.0000   0.0000   0.0000   0.3655
   6.500   1.5932   0.01429   0.00758  -0.2005  0.0030  0.5227  -2.6921   0.0000   0.0000   0.0000   0.3644
   6.600   1.6024   0.01440   0.00770  -0.2002  0.0028  0.5273  -2.7282   0.0000   0.0000   0.0000   0.3633
   6.700   1.6116   0.01452   0.00781  -0.1999  0.0027  0.5315  -2.7643   0.0000   0.0000   0.0000   0.3622
   6.800   1.6207   0.01463   0.00793  -0.1995  0.0025  0.5399  -2.8006   0.0000   0.0000   0.0000   0.3611
   6.900   1.6300   0.01474   0.00806  -0.1993  0.0023  0.5508  -2.8373   0.0000   0.0000   0.0000   0.3601
   7.000   1.6390   0.01485   0.00819  -0.1989  0.0022  0.5568  -2.8736   0.0000   0.0000   0.0000   0.3590
   7.100   1.6478   0.01497   0.00831  -0.1985  0.0020  0.5591  -2.9097   0.0000   0.0000   0.0000   0.3580
   7.200   1.6565   0.01510   0.00843  -0.1981  0.0019  0.5610  -2.9458   0.0000   0.0000   0.0000   0.3569
   7.300   1.6650   0.01522   0.00855  -0.1977  0.0018  0.5627  -2.9818   0.0000   0.0000   0.0000   0.3559
   7.400   1.6731   0.01535   0.00868  -0.1971  0.0016  0.5641  -3.0172   0.0000   0.0000   0.0000   0.3548
   7.500   1.6803   0.01547   0.00880  -0.1964  0.0015  0.5652  -3.0510   0.0000   0.0000   0.0000   0.3537
   7.600   1.6872   0.01560   0.00893  -0.1956  0.0014  0.5698  -3.0843   0.0000   0.0000   0.0000   0.3526
   7.700   1.6944   0.01573   0.00908  -0.1949  0.0014  0.5771  -3.1185   0.0000   0.0000   0.0000   0.3515
   7.800   1.7017   0.01586   0.00922  -0.1943  0.0014  0.5840  -3.1529   0.0000   0.0000   0.0000   0.3505
   7.900   1.7089   0.01600   0.00937  -0.1936  0.0013  0.5904  -3.1872   0.0000   0.0000   0.0000   0.3494
   8.000   1.7160   0.01614   0.00953  -0.1929  0.0013  0.5955  -3.2214   0.0000   0.0000   0.0000   0.3484
   8.100   1.7231   0.01629   0.00968  -0.1922  0.0013  0.6028  -3.2559   0.0000   0.0000   0.0000   0.3473
   8.200   1.7304   0.01644   0.00986  -0.1915  0.0013  0.6084  -3.2908   0.0000   0.0000   0.0000   0.3463
   8.300   1.7377   0.01659   0.01003  -0.1909  0.0013  0.6198  -3.3259   0.0000   0.0000   0.0000   0.3453
   8.400   1.7446   0.01675   0.01020  -0.1902  0.0013  0.6265  -3.3602   0.0000   0.0000   0.0000   0.3443
   8.500   1.7513   0.01691   0.01037  -0.1894  0.0013  0.6305  -3.3943   0.0000   0.0000   0.0000   0.3432
   8.600   1.7584   0.01708   0.01056  -0.1888  0.0013  0.6421  -3.4293   0.0000   0.0000   0.0000   0.3423
   8.700   1.7654   0.01725   0.01075  -0.1881  0.0013  0.6508  -3.4641   0.0000   0.0000   0.0000   0.3413
   8.800   1.7721   0.01743   0.01094  -0.1874  0.0013  0.6573  -3.4985   0.0000   0.0000   0.0000   0.3403
   8.900   1.7787   0.01761   0.01114  -0.1866  0.0013  0.6638  -3.5328   0.0000   0.0000   0.0000   0.3393
   9.000   1.7856   0.01780   0.01135  -0.1860  0.0013  0.6743  -3.5680   0.0000   0.0000   0.0000   0.3383
   9.100   1.7924   0.01799   0.01155  -0.1853  0.0013  0.6812  -3.6029   0.0000   0.0000   0.0000   0.3374
   9.200   1.7988   0.01820   0.01177  -0.1845  0.0013  0.6859  -3.6377   0.0000   0.0000   0.0000   0.3364
   9.300   1.8049   0.01841   0.01200  -0.1838  0.0013  0.6890  -3.6826   0.0000   0.0000   0.0000   0.3354
   9.400   1.8110   0.01863   0.01222  -0.1830  0.0013  0.6911  -3.7274   0.0000   0.0000   0.0000   0.3345
   9.500   1.8171   0.01886   0.01246  -0.1822  0.0013  0.6966  -3.7725   0.0000   0.0000   0.0000   0.3335
   9.600   1.8232   0.01909   0.01271  -0.1814  0.0012  0.7029  -3.8176   0.0000   0.0000   0.0000   0.3326
   9.700   1.8289   0.01933   0.01297  -0.1806  0.0012  0.7082  -3.8619   0.0000   0.0000   0.0000   0.3316
   9.800   1.8346   0.01959   0.01324  -0.1798  0.0012  0.7131  -3.9062   0.0000   0.0000   0.0000   0.3307
   9.900   1.8404   0.01984   0.01351  -0.1790  0.0012  0.7175  -3.9509   0.0000   0.0000   0.0000   0.3298
  10.000   1.8461   0.02011   0.01380  -0.1783  0.0012  0.7220  -3.9955   0.0000   0.0000   0.0000   0.3289
  10.100   1.8518   0.02039   0.01410  -0.1775  0.0012  0.7319  -4.0399   0.0000   0.0000   0.0000   0.3280
  10.200   1.8573   0.02068   0.01442  -0.1767  0.0012  0.7406  -4.0839   0.0000   0.0000   0.0000   0.3271
  10.300   1.8628   0.02097   0.01473  -0.1759  0.0012  0.7472  -4.1280   0.0000   0.0000   0.0000   0.3262
  10.400   1.8684   0.02127   0.01505  -0.1752  0.0012  0.7545  -4.1722   0.0000   0.0000   0.0000   0.3253
  10.500   1.8736   0.02160   0.01542  -0.1744  0.0012  0.7648  -4.2394   0.0000   0.0000   0.0000   0.3244
  10.600   1.8787   0.02194   0.01579  -0.1736  0.0012  0.7737  -4.3133   0.0000   0.0000   0.0000   0.3236
  10.700   1.8841   0.02227   0.01616  -0.1729  0.0012  0.7841  -4.3872   0.0000   0.0000   0.0000   0.3227
  10.800   1.8895   0.02262   0.01654  -0.1722  0.0012  0.7969  -4.4599   0.0000   0.0000   0.0000   0.3219
  10.900   1.8941   0.02300   0.01696  -0.1713  0.0012  0.8074  -4.5277   0.0000   0.0000   0.0000   0.3210
  11.000   1.8989   0.02339   0.01740  -0.1706  0.0012  0.8215  -4.5945   0.0000   0.0000   0.0000   0.3202
  11.100   1.9038   0.02379   0.01785  -0.1699  0.0012  0.8359  -4.6590   0.0000   0.0000   0.0000   0.3193
  11.200   1.9084   0.02422   0.01834  -0.1691  0.0012  0.8552  -4.7186   0.0000   0.0000   0.0000   0.3185
  11.300   1.9126   0.02471   0.01893  -0.1684  0.0012  0.8978  -4.7695   0.0000   0.0000   0.0000   0.3177


