xflr5 v6.59

 Calculated polar for: WORTMANN FX 63-137 AIRFOIL

 1 1 Reynolds number fixed          Mach number fixed         

 xtrf =   1.000 (top)        1.000 (bottom)
 Mach =   0.000     Re =     2.700 e 6     Ncrit =   9.000

  alpha     CL        CD       CDp       Cm    Top Xtr Bot Xtr   Cpmin    Chinge    XCp    
 ------- -------- --------- --------- -------- ------- ------- -------- --------- ---------
   0.000   0.8996   0.00993   0.00257  -0.2040  0.1662  0.0190  -1.1291   0.0000   0.0000   0.0000   0.4749
   0.100   0.9110   0.00996   0.00260  -0.2041  0.1650  0.0189  -1.1395   0.0000   0.0000   0.0000   0.4720
   0.200   0.9210   0.01010   0.00269  -0.2039  0.1509  0.0188  -1.1499   0.0000   0.0000   0.0000   0.4692
   0.300   0.9316   0.01019   0.00275  -0.2038  0.1449  0.0187  -1.1602   0.0000   0.0000   0.0000   0.4664
   0.400   0.9427   0.01024   0.00278  -0.2038  0.1428  0.0186  -1.1706   0.0000   0.0000   0.0000   0.4637
   0.500   0.9537   0.01029   0.00282  -0.2037  0.1407  0.0186  -1.1809   0.0000   0.0000   0.0000   0.4610
   0.600   0.9647   0.01035   0.00287  -0.2037  0.1387  0.0185  -1.1912   0.0000   0.0000   0.0000   0.4584
   0.700   0.9757   0.01040   0.00291  -0.2037  0.1365  0.0185  -1.2014   0.0000   0.0000   0.0000   0.4559
   0.800   0.9867   0.01045   0.00295  -0.2037  0.1344  0.0185  -1.2125   0.0000   0.0000   0.0000   0.4534
   0.900   0.9978   0.01049   0.00299  -0.2036  0.1323  0.0190  -1.2249   0.0000   0.0000   0.0000   0.4509
   1.000   1.0089   0.01054   0.00303  -0.2036  0.1302  0.0196  -1.2374   0.0000   0.0000   0.0000   0.4485
   1.100   1.0196   0.01060   0.00305  -0.2035  0.1279  0.0249  -1.2496   0.0000   0.0000   0.0000   0.4462
   1.200   1.0314   0.01061   0.00314  -0.2037  0.1257  0.0336  -1.2624   0.0000   0.0000   0.0000   0.4439
   1.300   1.0425   0.01064   0.00317  -0.2037  0.1241  0.0356  -1.2749   0.0000   0.0000   0.0000   0.4417
   1.400   1.0537   0.01067   0.00321  -0.2037  0.1238  0.0366  -1.2872   0.0000   0.0000   0.0000   0.4395
   1.500   1.0649   0.01071   0.00325  -0.2037  0.1234  0.0373  -1.2996   0.0000   0.0000   0.0000   0.4373
   1.600   1.0760   0.01074   0.00329  -0.2037  0.1230  0.0378  -1.3120   0.0000   0.0000   0.0000   0.4352
   1.700   1.0871   0.01078   0.00332  -0.2037  0.1225  0.0382  -1.3252   0.0000   0.0000   0.0000   0.4331
   1.800   1.0982   0.01082   0.00336  -0.2037  0.1219  0.0385  -1.3403   0.0000   0.0000   0.0000   0.4311
   1.900   1.1092   0.01086   0.00340  -0.2037  0.1212  0.0400  -1.3555   0.0000   0.0000   0.0000   0.4291
   2.000   1.1202   0.01091   0.00345  -0.2037  0.1201  0.0418  -1.3708   0.0000   0.0000   0.0000   0.4271
   2.100   1.1312   0.01095   0.00349  -0.2037  0.1187  0.0443  -1.3863   0.0000   0.0000   0.0000   0.4252
   2.200   1.1401   0.01116   0.00364  -0.2033  0.1032  0.0471  -1.4058   0.0000   0.0000   0.0000   0.4233
   2.300   1.1513   0.01121   0.00372  -0.2033  0.1020  0.0648  -1.4210   0.0000   0.0000   0.0000   0.4215
   2.400   1.1620   0.01128   0.00378  -0.2033  0.1006  0.0668  -1.4364   0.0000   0.0000   0.0000   0.4197
   2.500   1.1727   0.01134   0.00383  -0.2032  0.0992  0.0766  -1.4520   0.0000   0.0000   0.0000   0.4179
   2.600   1.1838   0.01140   0.00391  -0.2033  0.0964  0.1011  -1.4677   0.0000   0.0000   0.0000   0.4162
   2.700   1.1942   0.01150   0.00399  -0.2031  0.0909  0.1136  -1.4837   0.0000   0.0000   0.0000   0.4144
   2.800   1.2050   0.01156   0.00406  -0.2031  0.0855  0.1217  -1.5015   0.0000   0.0000   0.0000   0.4127
   2.900   1.2164   0.01159   0.00413  -0.2032  0.0840  0.1434  -1.5259   0.0000   0.0000   0.0000   0.4111
   3.000   1.2271   0.01165   0.00419  -0.2032  0.0832  0.1467  -1.5500   0.0000   0.0000   0.0000   0.4095
   3.100   1.2380   0.01170   0.00425  -0.2032  0.0819  0.1591  -1.5741   0.0000   0.0000   0.0000   0.4078
   3.200   1.2491   0.01175   0.00433  -0.2032  0.0797  0.1752  -1.5988   0.0000   0.0000   0.0000   0.4063
   3.300   1.2582   0.01196   0.00451  -0.2029  0.0662  0.1938  -1.6248   0.0000   0.0000   0.0000   0.4047
   3.400   1.2685   0.01205   0.00458  -0.2028  0.0640  0.2047  -1.6443   0.0000   0.0000   0.0000   0.4032
   3.500   1.2793   0.01212   0.00467  -0.2028  0.0620  0.2212  -1.6638   0.0000   0.0000   0.0000   0.4017
   3.600   1.2905   0.01217   0.00475  -0.2029  0.0600  0.2478  -1.6840   0.0000   0.0000   0.0000   0.4002
   3.700   1.3012   0.01224   0.00483  -0.2028  0.0579  0.2621  -1.7047   0.0000   0.0000   0.0000   0.3988
   3.800   1.3123   0.01229   0.00491  -0.2029  0.0558  0.2819  -1.7266   0.0000   0.0000   0.0000   0.3974
   3.900   1.3228   0.01234   0.00497  -0.2028  0.0587  0.2762  -1.7526   0.0000   0.0000   0.0000   0.3959
   4.000   1.3343   0.01237   0.00505  -0.2030  0.0578  0.3065  -1.7873   0.0000   0.0000   0.0000   0.3945
   4.100   1.3452   0.01242   0.00513  -0.2030  0.0561  0.3247  -1.8212   0.0000   0.0000   0.0000   0.3932
   4.300   1.3673   0.01252   0.00531  -0.2031  0.0531  0.3706  -1.8902   0.0000   0.0000   0.0000   0.3905
   4.400   1.3783   0.01257   0.00539  -0.2032  0.0519  0.3894  -1.9248   0.0000   0.0000   0.0000   0.3892
   4.500   1.3890   0.01263   0.00547  -0.2031  0.0516  0.4030  -1.9596   0.0000   0.0000   0.0000   0.3879
   4.600   1.4000   0.01268   0.00557  -0.2032  0.0514  0.4258  -1.9953   0.0000   0.0000   0.0000   0.3867
   4.700   1.4103   0.01275   0.00565  -0.2031  0.0510  0.4338  -2.0302   0.0000   0.0000   0.0000   0.3854
   4.800   1.4207   0.01283   0.00575  -0.2030  0.0503  0.4461  -2.0655   0.0000   0.0000   0.0000   0.3841
   4.900   1.4310   0.01291   0.00585  -0.2029  0.0492  0.4586  -2.1010   0.0000   0.0000   0.0000   0.3828
   5.000   1.4409   0.01301   0.00597  -0.2027  0.0476  0.4690  -2.1362   0.0000   0.0000   0.0000   0.3816
   5.100   1.4512   0.01311   0.00610  -0.2026  0.0455  0.4935  -2.1722   0.0000   0.0000   0.0000   0.3804
   5.200   1.4608   0.01324   0.00623  -0.2024  0.0436  0.5040  -2.2069   0.0000   0.0000   0.0000   0.3791
   5.300   1.4709   0.01333   0.00635  -0.2022  0.0420  0.5214  -2.2424   0.0000   0.0000   0.0000   0.3779
   5.400   1.4806   0.01344   0.00646  -0.2020  0.0404  0.5281  -2.2773   0.0000   0.0000   0.0000   0.3767
   5.500   1.4902   0.01354   0.00656  -0.2017  0.0389  0.5301  -2.3122   0.0000   0.0000   0.0000   0.3755
   5.600   1.4999   0.01364   0.00665  -0.2015  0.0382  0.5317  -2.3475   0.0000   0.0000   0.0000   0.3743
   5.700   1.5096   0.01373   0.00675  -0.2013  0.0379  0.5334  -2.3835   0.0000   0.0000   0.0000   0.3731
   5.800   1.5193   0.01383   0.00684  -0.2010  0.0377  0.5381  -2.4197   0.0000   0.0000   0.0000   0.3720
   5.900   1.5289   0.01392   0.00695  -0.2008  0.0374  0.5435  -2.4561   0.0000   0.0000   0.0000   0.3708
   6.000   1.5379   0.01407   0.00710  -0.2004  0.0350  0.5503  -2.4948   0.0000   0.0000   0.0000   0.3697
   6.100   1.5436   0.01443   0.00739  -0.1995  0.0251  0.5541  -2.5316   0.0000   0.0000   0.0000   0.3684
   6.200   1.5510   0.01466   0.00759  -0.1989  0.0209  0.5587  -2.5517   0.0000   0.0000   0.0000   0.3672
   6.300   1.5596   0.01481   0.00773  -0.1984  0.0173  0.5630  -2.5793   0.0000   0.0000   0.0000   0.3661
   6.400   1.5685   0.01494   0.00786  -0.1980  0.0165  0.5678  -2.6134   0.0000   0.0000   0.0000   0.3650
   6.500   1.5778   0.01504   0.00799  -0.1978  0.0163  0.5793  -2.6492   0.0000   0.0000   0.0000   0.3639
   6.600   1.5805   0.01557   0.00849  -0.1962  0.0045  0.5857  -2.6810   0.0000   0.0000   0.0000   0.3625
   6.700   1.5888   0.01571   0.00864  -0.1957  0.0044  0.5922  -2.7161   0.0000   0.0000   0.0000   0.3614
   6.800   1.5963   0.01585   0.00879  -0.1951  0.0042  0.5962  -2.7500   0.0000   0.0000   0.0000   0.3603
   6.900   1.6033   0.01599   0.00893  -0.1943  0.0040  0.6025  -2.7832   0.0000   0.0000   0.0000   0.3591
   7.000   1.6107   0.01613   0.00909  -0.1937  0.0038  0.6119  -2.8172   0.0000   0.0000   0.0000   0.3580
   7.100   1.6181   0.01627   0.00924  -0.1930  0.0037  0.6196  -2.8508   0.0000   0.0000   0.0000   0.3568
   7.200   1.6253   0.01641   0.00940  -0.1924  0.0035  0.6254  -2.8838   0.0000   0.0000   0.0000   0.3557
   7.300   1.6325   0.01656   0.00954  -0.1916  0.0033  0.6289  -2.9167   0.0000   0.0000   0.0000   0.3546
   7.400   1.6399   0.01670   0.00970  -0.1910  0.0032  0.6366  -2.9501   0.0000   0.0000   0.0000   0.3535
   7.500   1.6475   0.01684   0.00986  -0.1904  0.0029  0.6447  -2.9838   0.0000   0.0000   0.0000   0.3525
   7.600   1.6548   0.01699   0.01003  -0.1898  0.0027  0.6511  -3.0172   0.0000   0.0000   0.0000   0.3514
   7.700   1.6620   0.01715   0.01019  -0.1891  0.0025  0.6563  -3.0504   0.0000   0.0000   0.0000   0.3503
   7.800   1.6691   0.01731   0.01036  -0.1884  0.0022  0.6601  -3.0835   0.0000   0.0000   0.0000   0.3493
   8.900   1.7431   0.01943   0.01263  -0.1807  0.0013  0.7159  -3.4536   0.0000   0.0000   0.0000   0.3381
   9.000   1.7490   0.01967   0.01289  -0.1800  0.0013  0.7202  -3.4864   0.0000   0.0000   0.0000   0.3371
   9.100   1.7550   0.01992   0.01316  -0.1792  0.0013  0.7278  -3.5193   0.0000   0.0000   0.0000   0.3361
   9.200   1.7611   0.02017   0.01343  -0.1785  0.0013  0.7361  -3.5526   0.0000   0.0000   0.0000   0.3352
   9.300   1.7671   0.02042   0.01371  -0.1777  0.0013  0.7436  -3.5860   0.0000   0.0000   0.0000   0.3342
   9.400   1.7729   0.02069   0.01400  -0.1770  0.0013  0.7495  -3.6188   0.0000   0.0000   0.0000   0.3333
   9.500   1.7787   0.02097   0.01431  -0.1762  0.0013  0.7590  -3.6557   0.0000   0.0000   0.0000   0.3324
   9.600   1.7846   0.02125   0.01461  -0.1755  0.0013  0.7683  -3.6984   0.0000   0.0000   0.0000   0.3315
   9.700   1.7905   0.02154   0.01492  -0.1748  0.0013  0.7765  -3.7411   0.0000   0.0000   0.0000   0.3305
   9.800   1.7964   0.02183   0.01525  -0.1741  0.0013  0.7881  -3.7840   0.0000   0.0000   0.0000   0.3296
   9.900   1.8020   0.02215   0.01560  -0.1734  0.0013  0.7994  -3.8259   0.0000   0.0000   0.0000   0.3287
  10.000   1.8076   0.02246   0.01595  -0.1727  0.0013  0.8105  -3.8679   0.0000   0.0000   0.0000   0.3279
  10.100   1.8134   0.02278   0.01631  -0.1720  0.0013  0.8238  -3.9103   0.0000   0.0000   0.0000   0.3270
  10.200   1.8191   0.02312   0.01668  -0.1713  0.0013  0.8383  -3.9524   0.0000   0.0000   0.0000   0.3261
  10.300   1.8245   0.02347   0.01709  -0.1707  0.0013  0.8574  -3.9937   0.0000   0.0000   0.0000   0.3253
  10.400   1.8302   0.02381   0.01751  -0.1701  0.0013  0.8931  -4.0354   0.0000   0.0000   0.0000   0.3245


