xflr5 v6.59

 Calculated polar for: WORTMANN FX 63-137 AIRFOIL

 1 1 Reynolds number fixed          Mach number fixed         

 xtrf =   1.000 (top)        1.000 (bottom)
 Mach =   0.000     Re =     3.500 e 6     Ncrit =   9.000

  alpha     CL        CD       CDp       Cm    Top Xtr Bot Xtr   Cpmin    Chinge    XCp    
 ------- -------- --------- --------- -------- ------- ------- -------- --------- ---------
   0.000   0.9030   0.00981   0.00260  -0.2048  0.1297  0.0189  -1.1337   0.0000   0.0000   0.0000   0.4750
   0.100   0.9143   0.00984   0.00262  -0.2049  0.1275  0.0187  -1.1441   0.0000   0.0000   0.0000   0.4721
   0.200   0.9256   0.00986   0.00265  -0.2049  0.1256  0.0185  -1.1544   0.0000   0.0000   0.0000   0.4692
   0.300   0.9370   0.00989   0.00268  -0.2049  0.1241  0.0183  -1.1648   0.0000   0.0000   0.0000   0.4664
   0.400   0.9483   0.00992   0.00271  -0.2050  0.1239  0.0182  -1.1752   0.0000   0.0000   0.0000   0.4637
   0.500   0.9596   0.00995   0.00273  -0.2050  0.1236  0.0181  -1.1857   0.0000   0.0000   0.0000   0.4611
   0.600   0.9709   0.00998   0.00276  -0.2050  0.1233  0.0179  -1.1961   0.0000   0.0000   0.0000   0.4585
   0.700   0.9822   0.01000   0.00279  -0.2051  0.1229  0.0179  -1.2074   0.0000   0.0000   0.0000   0.4559
   0.800   0.9935   0.01004   0.00283  -0.2051  0.1225  0.0178  -1.2198   0.0000   0.0000   0.0000   0.4534
   0.900   1.0048   0.01007   0.00286  -0.2051  0.1222  0.0181  -1.2321   0.0000   0.0000   0.0000   0.4510
   1.000   1.0160   0.01010   0.00290  -0.2051  0.1217  0.0182  -1.2445   0.0000   0.0000   0.0000   0.4486
   1.100   1.0272   0.01013   0.00294  -0.2051  0.1211  0.0201  -1.2568   0.0000   0.0000   0.0000   0.4463
   1.200   1.0380   0.01019   0.00297  -0.2051  0.1201  0.0246  -1.2690   0.0000   0.0000   0.0000   0.4440
   1.300   1.0495   0.01021   0.00304  -0.2051  0.1193  0.0264  -1.2816   0.0000   0.0000   0.0000   0.4417
   1.400   1.0591   0.01039   0.00317  -0.2049  0.1032  0.0344  -1.2953   0.0000   0.0000   0.0000   0.4396
   1.500   1.0700   0.01044   0.00321  -0.2048  0.1020  0.0358  -1.3101   0.0000   0.0000   0.0000   0.4374
   1.600   1.0810   0.01049   0.00325  -0.2048  0.1008  0.0366  -1.3251   0.0000   0.0000   0.0000   0.4353
   1.700   1.0918   0.01055   0.00330  -0.2048  0.0996  0.0372  -1.3402   0.0000   0.0000   0.0000   0.4333
   1.800   1.1027   0.01061   0.00335  -0.2047  0.0984  0.0377  -1.3554   0.0000   0.0000   0.0000   0.4312
   1.900   1.1136   0.01067   0.00339  -0.2047  0.0972  0.0381  -1.3706   0.0000   0.0000   0.0000   0.4293
   2.000   1.1245   0.01072   0.00344  -0.2046  0.0960  0.0383  -1.3857   0.0000   0.0000   0.0000   0.4273
   2.100   1.1354   0.01077   0.00348  -0.2046  0.0946  0.0395  -1.4007   0.0000   0.0000   0.0000   0.4254
   2.200   1.1463   0.01082   0.00352  -0.2046  0.0931  0.0418  -1.4159   0.0000   0.0000   0.0000   0.4235
   2.300   1.1573   0.01087   0.00358  -0.2046  0.0917  0.0493  -1.4311   0.0000   0.0000   0.0000   0.4216
   2.400   1.1682   0.01092   0.00364  -0.2045  0.0896  0.0516  -1.4463   0.0000   0.0000   0.0000   0.4198
   2.500   1.1792   0.01097   0.00370  -0.2045  0.0843  0.0644  -1.4620   0.0000   0.0000   0.0000   0.4181
   2.600   1.1901   0.01102   0.00376  -0.2045  0.0835  0.0672  -1.4769   0.0000   0.0000   0.0000   0.4163
   2.700   1.2010   0.01107   0.00382  -0.2045  0.0820  0.0786  -1.4953   0.0000   0.0000   0.0000   0.4146
   2.800   1.2122   0.01112   0.00389  -0.2046  0.0794  0.1000  -1.5201   0.0000   0.0000   0.0000   0.4129
   2.900   1.2206   0.01137   0.00407  -0.2041  0.0641  0.1019  -1.5417   0.0000   0.0000   0.0000   0.4112
   3.000   1.2308   0.01147   0.00414  -0.2039  0.0616  0.1034  -1.5599   0.0000   0.0000   0.0000   0.4096
   3.100   1.2413   0.01154   0.00421  -0.2038  0.0593  0.1093  -1.5793   0.0000   0.0000   0.0000   0.4079
   3.200   1.2520   0.01161   0.00428  -0.2037  0.0571  0.1160  -1.6002   0.0000   0.0000   0.0000   0.4063
   3.300   1.2628   0.01166   0.00434  -0.2037  0.0549  0.1226  -1.6221   0.0000   0.0000   0.0000   0.4048
   3.400   1.2741   0.01170   0.00441  -0.2038  0.0530  0.1437  -1.6448   0.0000   0.0000   0.0000   0.4033
   3.500   1.2847   0.01176   0.00447  -0.2037  0.0517  0.1462  -1.6671   0.0000   0.0000   0.0000   0.4017
   3.600   1.2954   0.01182   0.00453  -0.2036  0.0515  0.1551  -1.6904   0.0000   0.0000   0.0000   0.4002
   3.700   1.3064   0.01186   0.00459  -0.2037  0.0512  0.1656  -1.7141   0.0000   0.0000   0.0000   0.3988
   3.800   1.3178   0.01189   0.00466  -0.2038  0.0508  0.1925  -1.7384   0.0000   0.0000   0.0000   0.3974
   3.900   1.3281   0.01196   0.00472  -0.2036  0.0516  0.1791  -1.7632   0.0000   0.0000   0.0000   0.3959
   4.000   1.3390   0.01200   0.00479  -0.2036  0.0515  0.1944  -1.7974   0.0000   0.0000   0.0000   0.3945
   4.100   1.3497   0.01206   0.00485  -0.2036  0.0513  0.2057  -1.8316   0.0000   0.0000   0.0000   0.3931
   4.200   1.3608   0.01210   0.00493  -0.2036  0.0511  0.2221  -1.8664   0.0000   0.0000   0.0000   0.3918
   4.300   1.3721   0.01213   0.00500  -0.2037  0.0507  0.2486  -1.9019   0.0000   0.0000   0.0000   0.3905
   4.400   1.3829   0.01219   0.00508  -0.2037  0.0501  0.2656  -1.9370   0.0000   0.0000   0.0000   0.3892
   4.500   1.3946   0.01222   0.00518  -0.2040  0.0489  0.3052  -1.9737   0.0000   0.0000   0.0000   0.3879
   4.600   1.4045   0.01232   0.00528  -0.2038  0.0469  0.3122  -2.0083   0.0000   0.0000   0.0000   0.3866
   4.700   1.4150   0.01242   0.00540  -0.2037  0.0444  0.3352  -2.0436   0.0000   0.0000   0.0000   0.3854
   4.800   1.4258   0.01250   0.00552  -0.2038  0.0419  0.3668  -2.0794   0.0000   0.0000   0.0000   0.3841
   4.900   1.4360   0.01258   0.00561  -0.2036  0.0398  0.3781  -2.1142   0.0000   0.0000   0.0000   0.3829
   5.100   1.4576   0.01270   0.00580  -0.2037  0.0381  0.4169  -2.1866   0.0000   0.0000   0.0000   0.3805
   5.200   1.4683   0.01276   0.00589  -0.2036  0.0379  0.4354  -2.2232   0.0000   0.0000   0.0000   0.3793
   5.300   1.4794   0.01281   0.00599  -0.2037  0.0376  0.4672  -2.2608   0.0000   0.0000   0.0000   0.3782
   5.400   1.4903   0.01286   0.00609  -0.2038  0.0374  0.4966  -2.2983   0.0000   0.0000   0.0000   0.3770
   5.500   1.5002   0.01295   0.00618  -0.2036  0.0370  0.5006  -2.3346   0.0000   0.0000   0.0000   0.3758
   5.600   1.5101   0.01304   0.00627  -0.2034  0.0366  0.5056  -2.3710   0.0000   0.0000   0.0000   0.3747
   5.700   1.5200   0.01313   0.00637  -0.2032  0.0361  0.5112  -2.4078   0.0000   0.0000   0.0000   0.3735
   5.800   1.5297   0.01323   0.00647  -0.2030  0.0352  0.5163  -2.4449   0.0000   0.0000   0.0000   0.3723
   6.100   1.5476   0.01431   0.00741  -0.2002  0.0045  0.5283  -2.5285   0.0000   0.0000   0.0000   0.3685
   6.200   1.5567   0.01444   0.00754  -0.1998  0.0043  0.5303  -2.5647   0.0000   0.0000   0.0000   0.3674
   6.300   1.5657   0.01456   0.00766  -0.1995  0.0041  0.5317  -2.6009   0.0000   0.0000   0.0000   0.3663
   6.400   1.5747   0.01468   0.00778  -0.1991  0.0039  0.5339  -2.6370   0.0000   0.0000   0.0000   0.3651
   6.500   1.5838   0.01480   0.00791  -0.1988  0.0037  0.5429  -2.6730   0.0000   0.0000   0.0000   0.3640
   6.600   1.5930   0.01492   0.00804  -0.1985  0.0035  0.5522  -2.7092   0.0000   0.0000   0.0000   0.3630
   6.700   1.6020   0.01504   0.00817  -0.1981  0.0034  0.5595  -2.7451   0.0000   0.0000   0.0000   0.3619
   6.800   1.6108   0.01516   0.00830  -0.1977  0.0032  0.5635  -2.7807   0.0000   0.0000   0.0000   0.3608
   6.900   1.6194   0.01528   0.00842  -0.1973  0.0030  0.5653  -2.8160   0.0000   0.0000   0.0000   0.3597
   7.000   1.6281   0.01541   0.00855  -0.1969  0.0029  0.5700  -2.8515   0.0000   0.0000   0.0000   0.3586
   7.100   1.6363   0.01553   0.00868  -0.1964  0.0027  0.5759  -2.8863   0.0000   0.0000   0.0000   0.3576
   7.200   1.6439   0.01565   0.00882  -0.1958  0.0025  0.5816  -2.9200   0.0000   0.0000   0.0000   0.3564
   7.300   1.6511   0.01578   0.00896  -0.1951  0.0023  0.5873  -2.9532   0.0000   0.0000   0.0000   0.3553
   7.400   1.6583   0.01591   0.00910  -0.1944  0.0021  0.5927  -2.9867   0.0000   0.0000   0.0000   0.3542
   7.500   1.6656   0.01605   0.00924  -0.1937  0.0020  0.5970  -3.0204   0.0000   0.0000   0.0000   0.3531
   7.600   1.6730   0.01618   0.00939  -0.1930  0.0018  0.6078  -3.0546   0.0000   0.0000   0.0000   0.3521
   7.700   1.6804   0.01632   0.00955  -0.1924  0.0017  0.6179  -3.0891   0.0000   0.0000   0.0000   0.3510
   7.800   1.6877   0.01646   0.00971  -0.1917  0.0015  0.6248  -3.1234   0.0000   0.0000   0.0000   0.3499
   7.900   1.6948   0.01662   0.00986  -0.1910  0.0014  0.6287  -3.1575   0.0000   0.0000   0.0000   0.3489
   8.000   1.7019   0.01677   0.01003  -0.1904  0.0014  0.6360  -3.1917   0.0000   0.0000   0.0000   0.3478
   8.100   1.7090   0.01693   0.01021  -0.1897  0.0013  0.6448  -3.2262   0.0000   0.0000   0.0000   0.3468
   8.200   1.7160   0.01710   0.01039  -0.1890  0.0013  0.6511  -3.2604   0.0000   0.0000   0.0000   0.3458
   8.300   1.7229   0.01727   0.01058  -0.1883  0.0013  0.6546  -3.2946   0.0000   0.0000   0.0000   0.3448
   8.400   1.7297   0.01744   0.01077  -0.1876  0.0013  0.6597  -3.3286   0.0000   0.0000   0.0000   0.3437
   8.500   1.7366   0.01762   0.01096  -0.1869  0.0013  0.6688  -3.3628   0.0000   0.0000   0.0000   0.3427
   8.600   1.7434   0.01780   0.01116  -0.1862  0.0013  0.6770  -3.3971   0.0000   0.0000   0.0000   0.3417
   8.700   1.7502   0.01799   0.01136  -0.1855  0.0013  0.6827  -3.4313   0.0000   0.0000   0.0000   0.3407
   8.800   1.7569   0.01818   0.01157  -0.1848  0.0013  0.6868  -3.4655   0.0000   0.0000   0.0000   0.3398
   8.900   1.7633   0.01839   0.01178  -0.1840  0.0013  0.6897  -3.4993   0.0000   0.0000   0.0000   0.3388
   9.000   1.7696   0.01860   0.01200  -0.1833  0.0013  0.6923  -3.5328   0.0000   0.0000   0.0000   0.3378
   9.100   1.7760   0.01881   0.01223  -0.1826  0.0013  0.6988  -3.5668   0.0000   0.0000   0.0000   0.3368
   9.200   1.7824   0.01903   0.01246  -0.1818  0.0013  0.7046  -3.6008   0.0000   0.0000   0.0000   0.3359
   9.300   1.7886   0.01925   0.01270  -0.1811  0.0013  0.7098  -3.6349   0.0000   0.0000   0.0000   0.3349
   9.400   1.7944   0.01950   0.01296  -0.1803  0.0013  0.7146  -3.6784   0.0000   0.0000   0.0000   0.3339
   9.500   1.8001   0.01974   0.01322  -0.1795  0.0013  0.7190  -3.7218   0.0000   0.0000   0.0000   0.3330
   9.700   1.8123   0.02025   0.01377  -0.1780  0.0013  0.7345  -3.8104   0.0000   0.0000   0.0000   0.3311
   9.800   1.8180   0.02052   0.01407  -0.1773  0.0013  0.7425  -3.8537   0.0000   0.0000   0.0000   0.3302
   9.900   1.8234   0.02081   0.01438  -0.1765  0.0013  0.7486  -3.8964   0.0000   0.0000   0.0000   0.3293
  10.000   1.8291   0.02111   0.01469  -0.1757  0.0013  0.7573  -3.9399   0.0000   0.0000   0.0000   0.3284
  10.100   1.8350   0.02140   0.01502  -0.1750  0.0013  0.7670  -3.9836   0.0000   0.0000   0.0000   0.3275
  10.200   1.8403   0.02172   0.01536  -0.1742  0.0013  0.7755  -4.0259   0.0000   0.0000   0.0000   0.3266
  10.300   1.8457   0.02205   0.01573  -0.1735  0.0012  0.7869  -4.0683   0.0000   0.0000   0.0000   0.3257
  10.400   1.8511   0.02238   0.01609  -0.1728  0.0012  0.7988  -4.1108   0.0000   0.0000   0.0000   0.3249
  10.500   1.8566   0.02272   0.01647  -0.1721  0.0013  0.8099  -4.1533   0.0000   0.0000   0.0000   0.3240
  10.600   1.8616   0.02309   0.01690  -0.1713  0.0013  0.8235  -4.1935   0.0000   0.0000   0.0000   0.3232
  10.700   1.8666   0.02347   0.01733  -0.1706  0.0013  0.8384  -4.2340   0.0000   0.0000   0.0000   0.3223
  10.800   1.8718   0.02385   0.01777  -0.1699  0.0013  0.8584  -4.2748   0.0000   0.0000   0.0000   0.3215
  10.900   1.8774   0.02424   0.01825  -0.1693  0.0013  0.8970  -4.3380   0.0000   0.0000   0.0000   0.3207


