xflr5 v6.59

 Calculated polar for: WORTMANN FX 63-137 AIRFOIL

 1 1 Reynolds number fixed          Mach number fixed         

 xtrf =   1.000 (top)        1.000 (bottom)
 Mach =   0.000     Re =     0.900 e 6     Ncrit =   9.000

  alpha     CL        CD       CDp       Cm    Top Xtr Bot Xtr   Cpmin    Chinge    XCp    
 ------- -------- --------- --------- -------- ------- ------- -------- --------- ---------
   0.000   0.8972   0.00952   0.00198  -0.2021  0.4669  0.0257  -1.1162   0.0000   0.0000   0.0000   0.4734
   0.100   0.9090   0.00953   0.00201  -0.2023  0.4622  0.0259  -1.1267   0.0000   0.0000   0.0000   0.4705
   0.200   0.9201   0.00958   0.00207  -0.2023  0.4505  0.0262  -1.1367   0.0000   0.0000   0.0000   0.4677
   0.300   0.9292   0.00978   0.00221  -0.2019  0.4305  0.0266  -1.1455   0.0000   0.0000   0.0000   0.4650
   0.400   0.9392   0.00990   0.00229  -0.2018  0.4187  0.0340  -1.1549   0.0000   0.0000   0.0000   0.4623
   0.500   0.9489   0.01006   0.00237  -0.2015  0.4061  0.0349  -1.1641   0.0000   0.0000   0.0000   0.4597
   0.600   0.9599   0.01012   0.00241  -0.2015  0.3996  0.0368  -1.1741   0.0000   0.0000   0.0000   0.4571
   0.700   0.9710   0.01016   0.00245  -0.2015  0.3940  0.0382  -1.1850   0.0000   0.0000   0.0000   0.4546
   0.800   0.9818   0.01023   0.00250  -0.2014  0.3856  0.0409  -1.1968   0.0000   0.0000   0.0000   0.4521
   0.900   0.9911   0.01041   0.00259  -0.2011  0.3704  0.0463  -1.2075   0.0000   0.0000   0.0000   0.4497
   1.000   1.0023   0.01046   0.00268  -0.2012  0.3646  0.0627  -1.2195   0.0000   0.0000   0.0000   0.4474
   1.100   1.0129   0.01054   0.00273  -0.2011  0.3588  0.0659  -1.2311   0.0000   0.0000   0.0000   0.4451
   1.200   1.0234   0.01063   0.00280  -0.2010  0.3530  0.0692  -1.2427   0.0000   0.0000   0.0000   0.4428
   1.300   1.0339   0.01072   0.00287  -0.2010  0.3468  0.0765  -1.2547   0.0000   0.0000   0.0000   0.4406
   1.400   1.0447   0.01079   0.00293  -0.2009  0.3403  0.0831  -1.2688   0.0000   0.0000   0.0000   0.4384
   1.500   1.0563   0.01081   0.00297  -0.2011  0.3377  0.1009  -1.2835   0.0000   0.0000   0.0000   0.4363
   1.600   1.0676   0.01083   0.00301  -0.2011  0.3351  0.1110  -1.2981   0.0000   0.0000   0.0000   0.4342
   1.700   1.0794   0.01084   0.00306  -0.2013  0.3307  0.1337  -1.3131   0.0000   0.0000   0.0000   0.4322
   1.800   1.0903   0.01091   0.00313  -0.2014  0.3213  0.1530  -1.3274   0.0000   0.0000   0.0000   0.4302
   1.900   1.1008   0.01105   0.00328  -0.2015  0.3041  0.2061  -1.3413   0.0000   0.0000   0.0000   0.4284
   2.000   1.1170   0.01088   0.00340  -0.2030  0.2958  0.3586  -1.3594   0.0000   0.0000   0.0000   0.4270
   2.100   1.1292   0.01091   0.00355  -0.2035  0.2878  0.4325  -1.3748   0.0000   0.0000   0.0000   0.4253
   2.200   1.1403   0.01098   0.00368  -0.2036  0.2802  0.4672  -1.3894   0.0000   0.0000   0.0000   0.4235
   2.300   1.1517   0.01102   0.00378  -0.2037  0.2772  0.4864  -1.4042   0.0000   0.0000   0.0000   0.4217
   2.400   1.1624   0.01108   0.00385  -0.2036  0.2740  0.4929  -1.4187   0.0000   0.0000   0.0000   0.4199
   2.500   1.1729   0.01116   0.00392  -0.2035  0.2685  0.4976  -1.4352   0.0000   0.0000   0.0000   0.4181
   2.600   1.1810   0.01144   0.00409  -0.2030  0.2486  0.5010  -1.4502   0.0000   0.0000   0.0000   0.4163
   2.700   1.1909   0.01157   0.00420  -0.2028  0.2426  0.5070  -1.4668   0.0000   0.0000   0.0000   0.4146
   2.800   1.2007   0.01171   0.00430  -0.2026  0.2367  0.5128  -1.4835   0.0000   0.0000   0.0000   0.4129
   2.900   1.2104   0.01186   0.00442  -0.2024  0.2302  0.5181  -1.5006   0.0000   0.0000   0.0000   0.4112
   3.000   1.2203   0.01197   0.00452  -0.2022  0.2237  0.5229  -1.5214   0.0000   0.0000   0.0000   0.4095
   3.100   1.2308   0.01204   0.00459  -0.2021  0.2211  0.5271  -1.5428   0.0000   0.0000   0.0000   0.4079
   3.200   1.2413   0.01211   0.00466  -0.2020  0.2189  0.5307  -1.5643   0.0000   0.0000   0.0000   0.4063
   3.300   1.2517   0.01220   0.00474  -0.2018  0.2152  0.5343  -1.5857   0.0000   0.0000   0.0000   0.4047
   3.400   1.2613   0.01234   0.00487  -0.2016  0.2045  0.5404  -1.6063   0.0000   0.0000   0.0000   0.4031
   3.500   1.2695   0.01259   0.00505  -0.2011  0.1925  0.5465  -1.6255   0.0000   0.0000   0.0000   0.4016
   3.600   1.2791   0.01273   0.00517  -0.2009  0.1879  0.5537  -1.6461   0.0000   0.0000   0.0000   0.4000
   3.700   1.2885   0.01288   0.00529  -0.2006  0.1833  0.5607  -1.6666   0.0000   0.0000   0.0000   0.3985
   3.800   1.2978   0.01303   0.00541  -0.2003  0.1784  0.5662  -1.6870   0.0000   0.0000   0.0000   0.3970
   3.900   1.3077   0.01314   0.00553  -0.2001  0.1731  0.5761  -1.7187   0.0000   0.0000   0.0000   0.3956
   4.000   1.3179   0.01323   0.00566  -0.1999  0.1700  0.5825  -1.7510   0.0000   0.0000   0.0000   0.3941
   4.100   1.3282   0.01330   0.00575  -0.1998  0.1687  0.5916  -1.7838   0.0000   0.0000   0.0000   0.3927
   4.300   1.3485   0.01347   0.00596  -0.1994  0.1638  0.6077  -1.8493   0.0000   0.0000   0.0000   0.3899
   4.400   1.3575   0.01363   0.00611  -0.1991  0.1550  0.6149  -1.8807   0.0000   0.0000   0.0000   0.3885
   4.500   1.3651   0.01390   0.00631  -0.1985  0.1442  0.6203  -1.9095   0.0000   0.0000   0.0000   0.3871
   4.600   1.3737   0.01407   0.00645  -0.1981  0.1402  0.6244  -1.9404   0.0000   0.0000   0.0000   0.3857
   4.700   1.3819   0.01429   0.00661  -0.1976  0.1348  0.6277  -1.9704   0.0000   0.0000   0.0000   0.3843
   4.800   1.3903   0.01448   0.00676  -0.1971  0.1273  0.6314  -2.0010   0.0000   0.0000   0.0000   0.3830
   4.900   1.3998   0.01459   0.00689  -0.1968  0.1231  0.6375  -2.0338   0.0000   0.0000   0.0000   0.3817
   5.000   1.4092   0.01471   0.00702  -0.1966  0.1192  0.6428  -2.0663   0.0000   0.0000   0.0000   0.3804
   5.100   1.4149   0.01508   0.00732  -0.1956  0.1023  0.6471  -2.0930   0.0000   0.0000   0.0000   0.3790
   5.200   1.4220   0.01534   0.00752  -0.1950  0.0972  0.6512  -2.1220   0.0000   0.0000   0.0000   0.3777
   5.300   1.4293   0.01558   0.00772  -0.1943  0.0913  0.6549  -2.1514   0.0000   0.0000   0.0000   0.3764
   5.400   1.4376   0.01576   0.00787  -0.1938  0.0856  0.6581  -2.1824   0.0000   0.0000   0.0000   0.3751
   5.500   1.4465   0.01588   0.00800  -0.1935  0.0838  0.6606  -2.2151   0.0000   0.0000   0.0000   0.3739
   5.600   1.4557   0.01599   0.00813  -0.1931  0.0824  0.6651  -2.2483   0.0000   0.0000   0.0000   0.3727
   5.700   1.4647   0.01611   0.00826  -0.1928  0.0808  0.6694  -2.2813   0.0000   0.0000   0.0000   0.3715
   5.800   1.4733   0.01623   0.00840  -0.1924  0.0789  0.6734  -2.3137   0.0000   0.0000   0.0000   0.3702
   5.900   1.4811   0.01638   0.00855  -0.1918  0.0749  0.6773  -2.3449   0.0000   0.0000   0.0000   0.3690
   6.000   1.4858   0.01667   0.00881  -0.1907  0.0663  0.6810  -2.3713   0.0000   0.0000   0.0000   0.3677
   6.100   1.4926   0.01686   0.00898  -0.1899  0.0649  0.6848  -2.4009   0.0000   0.0000   0.0000   0.3664
   6.200   1.4992   0.01706   0.00916  -0.1891  0.0633  0.6884  -2.4305   0.0000   0.0000   0.0000   0.3652
   6.300   1.5041   0.01736   0.00943  -0.1880  0.0587  0.6913  -2.4572   0.0000   0.0000   0.0000   0.3639
   6.400   1.5113   0.01754   0.00962  -0.1874  0.0559  0.6967  -2.4874   0.0000   0.0000   0.0000   0.3627
   6.500   1.5186   0.01772   0.00981  -0.1867  0.0539  0.7018  -2.5180   0.0000   0.0000   0.0000   0.3615
   6.600   1.5260   0.01788   0.01000  -0.1861  0.0523  0.7067  -2.5487   0.0000   0.0000   0.0000   0.3604
   6.700   1.5336   0.01804   0.01017  -0.1855  0.0516  0.7117  -2.5814   0.0000   0.0000   0.0000   0.3592
   6.800   1.5413   0.01819   0.01035  -0.1850  0.0513  0.7164  -2.6154   0.0000   0.0000   0.0000   0.3581
   6.900   1.5488   0.01835   0.01053  -0.1844  0.0509  0.7209  -2.6491   0.0000   0.0000   0.0000   0.3570
   7.000   1.5563   0.01851   0.01072  -0.1838  0.0504  0.7273  -2.6828   0.0000   0.0000   0.0000   0.3558
   7.100   1.5636   0.01869   0.01092  -0.1832  0.0498  0.7339  -2.7160   0.0000   0.0000   0.0000   0.3547
   7.200   1.5707   0.01887   0.01112  -0.1825  0.0491  0.7406  -2.7489   0.0000   0.0000   0.0000   0.3536
   7.300   1.5777   0.01906   0.01133  -0.1819  0.0483  0.7471  -2.7817   0.0000   0.0000   0.0000   0.3525
   7.400   1.5847   0.01926   0.01154  -0.1812  0.0475  0.7538  -2.8146   0.0000   0.0000   0.0000   0.3514
   7.500   1.5914   0.01947   0.01178  -0.1806  0.0465  0.7616  -2.8473   0.0000   0.0000   0.0000   0.3504
   7.600   1.5979   0.01969   0.01202  -0.1798  0.0454  0.7696  -2.8797   0.0000   0.0000   0.0000   0.3493
   7.700   1.6040   0.01994   0.01228  -0.1791  0.0442  0.7773  -2.9117   0.0000   0.0000   0.0000   0.3482
   7.800   1.6100   0.02020   0.01257  -0.1783  0.0428  0.7861  -2.9437   0.0000   0.0000   0.0000   0.3471
   7.900   1.6156   0.02048   0.01286  -0.1775  0.0414  0.7958  -2.9749   0.0000   0.0000   0.0000   0.3461
   8.100   1.6271   0.02102   0.01344  -0.1759  0.0385  0.8155  -3.0369   0.0000   0.0000   0.0000   0.3440
   8.200   1.6335   0.02124   0.01369  -0.1752  0.0380  0.8272  -3.0705   0.0000   0.0000   0.0000   0.3430
   8.300   1.6400   0.02146   0.01395  -0.1746  0.0375  0.8410  -3.1049   0.0000   0.0000   0.0000   0.3420
   8.400   1.6460   0.02169   0.01421  -0.1738  0.0370  0.8584  -3.1386   0.0000   0.0000   0.0000   0.3410
   8.500   1.6509   0.02189   0.01448  -0.1729  0.0362  0.8892  -3.1705   0.0000   0.0000   0.0000   0.3399
   8.600   1.6504   0.02200   0.01468  -0.1708  0.0355  1.0000  -3.1914   0.0000   0.0000   0.0000   0.3385
   8.700   1.6558   0.02234   0.01500  -0.1701  0.0335  1.0000  -3.2264   0.0000   0.0000   0.0000   0.3375
   8.800   1.6636   0.02252   0.01525  -0.1696  0.0360  1.0000  -3.2556   0.0000   0.0000   0.0000   0.3366
   8.900   1.6695   0.02282   0.01555  -0.1690  0.0353  1.0000  -3.2893   0.0000   0.0000   0.0000   0.3357
   9.000   1.6749   0.02316   0.01589  -0.1683  0.0336  1.0000  -3.3241   0.0000   0.0000   0.0000   0.3347
   9.100   1.6753   0.02385   0.01651  -0.1669  0.0270  1.0000  -3.3597   0.0000   0.0000   0.0000   0.3337
   9.200   1.6763   0.02451   0.01712  -0.1657  0.0231  1.0000  -3.3819   0.0000   0.0000   0.0000   0.3327
   9.300   1.6780   0.02514   0.01771  -0.1646  0.0187  1.0000  -3.3839   0.0000   0.0000   0.0000   0.3318
   9.400   1.6822   0.02559   0.01816  -0.1638  0.0161  1.0000  -3.4056   0.0000   0.0000   0.0000   0.3309
   9.600   1.6777   0.02746   0.02002  -0.1607  0.0044  1.0000  -3.4451   0.0000   0.0000   0.0000   0.3289
   9.700   1.6805   0.02804   0.02062  -0.1598  0.0040  1.0000  -3.4736   0.0000   0.0000   0.0000   0.3280
   9.800   1.6846   0.02854   0.02112  -0.1591  0.0035  1.0000  -3.5017   0.0000   0.0000   0.0000   0.3272
   9.900   1.6896   0.02898   0.02157  -0.1584  0.0029  1.0000  -3.5307   0.0000   0.0000   0.0000   0.3263
  10.000   1.6939   0.02947   0.02208  -0.1578  0.0026  1.0000  -3.5591   0.0000   0.0000   0.0000   0.3255
  10.100   1.6981   0.02998   0.02261  -0.1571  0.0024  1.0000  -3.5901   0.0000   0.0000   0.0000   0.3247
  10.200   1.7024   0.03050   0.02315  -0.1564  0.0023  1.0000  -3.6235   0.0000   0.0000   0.0000   0.3239
  10.300   1.7067   0.03101   0.02368  -0.1558  0.0023  1.0000  -3.6584   0.0000   0.0000   0.0000   0.3231
  10.400   1.7108   0.03155   0.02424  -0.1552  0.0022  1.0000  -3.6932   0.0000   0.0000   0.0000   0.3223
  10.500   1.7148   0.03210   0.02482  -0.1546  0.0022  1.0000  -3.7283   0.0000   0.0000   0.0000   0.3215
  10.600   1.7189   0.03265   0.02540  -0.1539  0.0021  1.0000  -3.7640   0.0000   0.0000   0.0000   0.3207
  10.700   1.7231   0.03320   0.02597  -0.1534  0.0021  1.0000  -3.8003   0.0000   0.0000   0.0000   0.3200
  10.800   1.7273   0.03375   0.02654  -0.1528  0.0021  1.0000  -3.8368   0.0000   0.0000   0.0000   0.3192
  10.900   1.7310   0.03435   0.02717  -0.1522  0.0021  1.0000  -3.8722   0.0000   0.0000   0.0000   0.3185
  11.000   1.7346   0.03497   0.02782  -0.1516  0.0021  1.0000  -3.9072   0.0000   0.0000   0.0000   0.3178
  11.100   1.7383   0.03558   0.02846  -0.1510  0.0020  1.0000  -3.9427   0.0000   0.0000   0.0000   0.3170
  11.200   1.7420   0.03619   0.02909  -0.1505  0.0020  1.0000  -3.9785   0.0000   0.0000   0.0000   0.3163
  11.300   1.7456   0.03682   0.02975  -0.1499  0.0020  1.0000  -4.0139   0.0000   0.0000   0.0000   0.3156
  11.400   1.7486   0.03751   0.03048  -0.1493  0.0020  1.0000  -4.0478   0.0000   0.0000   0.0000   0.3149
  11.500   1.7516   0.03822   0.03123  -0.1487  0.0020  1.0000  -4.0810   0.0000   0.0000   0.0000   0.3142
  11.600   1.7547   0.03890   0.03195  -0.1482  0.0020  1.0000  -4.1150   0.0000   0.0000   0.0000   0.3135
  11.700   1.7579   0.03959   0.03267  -0.1476  0.0020  1.0000  -4.1495   0.0000   0.0000   0.0000   0.3129
  11.800   1.7611   0.04028   0.03339  -0.1471  0.0021  1.0000  -4.1841   0.0000   0.0000   0.0000   0.3122
  11.900   1.7636   0.04105   0.03419  -0.1465  0.0021  1.0000  -4.2168   0.0000   0.0000   0.0000   0.3115
  12.000   1.7658   0.04186   0.03503  -0.1460  0.0021  1.0000  -4.2486   0.0000   0.0000   0.0000   0.3109
  12.100   1.7680   0.04265   0.03586  -0.1454  0.0021  1.0000  -4.2805   0.0000   0.0000   0.0000   0.3103
  12.200   1.7703   0.04343   0.03667  -0.1449  0.0021  1.0000  -4.3388   0.0000   0.0000   0.0000   0.3096
  12.300   1.7726   0.04422   0.03750  -0.1444  0.0021  1.0000  -4.4002   0.0000   0.0000   0.0000   0.3090
  12.400   1.7743   0.04509   0.03840  -0.1438  0.0021  1.0000  -4.4590   0.0000   0.0000   0.0000   0.3084
  12.500   1.7756   0.04603   0.03937  -0.1433  0.0021  1.0000  -4.5155   0.0000   0.0000   0.0000   0.3078
  12.600   1.7772   0.04694   0.04032  -0.1428  0.0021  1.0000  -4.5740   0.0000   0.0000   0.0000   0.3073
  12.700   1.7790   0.04783   0.04124  -0.1423  0.0022  1.0000  -4.6341   0.0000   0.0000   0.0000   0.3067
  12.800   1.7810   0.04872   0.04217  -0.1419  0.0022  1.0000  -4.6949   0.0000   0.0000   0.0000   0.3061
  12.900   1.7829   0.04962   0.04311  -0.1414  0.0022  1.0000  -4.7557   0.0000   0.0000   0.0000   0.3055
  13.000   1.7840   0.05063   0.04415  -0.1410  0.0022  1.0000  -4.8127   0.0000   0.0000   0.0000   0.3050
  13.100   1.7847   0.05172   0.04528  -0.1405  0.0022  1.0000  -4.8672   0.0000   0.0000   0.0000   0.3045
  13.200   1.7857   0.05277   0.04637  -0.1401  0.0022  1.0000  -4.9236   0.0000   0.0000   0.0000   0.3040
  13.300   1.7869   0.05380   0.04743  -0.1397  0.0023  1.0000  -4.9814   0.0000   0.0000   0.0000   0.3035
  13.400   1.7880   0.05484   0.04851  -0.1393  0.0023  1.0000  -5.0391   0.0000   0.0000   0.0000   0.3030
  13.500   1.7888   0.05594   0.04965  -0.1389  0.0023  1.0000  -5.0947   0.0000   0.0000   0.0000   0.3025
  13.600   1.7885   0.05720   0.05095  -0.1386  0.0023  1.0000  -5.1445   0.0000   0.0000   0.0000   0.3021
  13.700   1.7886   0.05841   0.05220  -0.1383  0.0024  1.0000  -5.1964   0.0000   0.0000   0.0000   0.3017
  13.800   1.7891   0.05957   0.05340  -0.1379  0.0024  1.0000  -5.2507   0.0000   0.0000   0.0000   0.3012
  13.900   1.7897   0.06071   0.05458  -0.1376  0.0024  1.0000  -5.3057   0.0000   0.0000   0.0000   0.3008
  14.000   1.7904   0.06186   0.05577  -0.1373  0.0024  1.0000  -5.3605   0.0000   0.0000   0.0000   0.3004
  14.100   1.7907   0.06307   0.05702  -0.1370  0.0025  1.0000  -5.4132   0.0000   0.0000   0.0000   0.2999
  14.200   1.7897   0.06449   0.05848  -0.1368  0.0025  1.0000  -5.4585   0.0000   0.0000   0.0000   0.2996
  14.300   1.7891   0.06584   0.05987  -0.1366  0.0025  1.0000  -5.5058   0.0000   0.0000   0.0000   0.2993
  14.400   1.7890   0.06713   0.06120  -0.1363  0.0026  1.0000  -5.5558   0.0000   0.0000   0.0000   0.2989
  14.500   1.7891   0.06839   0.06250  -0.1361  0.0026  1.0000  -5.6060   0.0000   0.0000   0.0000   0.2985
  14.600   1.7892   0.06966   0.06381  -0.1359  0.0026  1.0000  -5.6553   0.0000   0.0000   0.0000   0.2982
  14.700   1.7878   0.07117   0.06536  -0.1358  0.0027  1.0000  -5.6964   0.0000   0.0000   0.0000   0.2979
  14.800   1.7866   0.07267   0.06690  -0.1357  0.0027  1.0000  -5.7373   0.0000   0.0000   0.0000   0.2977
  14.900   1.7861   0.07405   0.06832  -0.1356  0.0028  1.0000  -5.7815   0.0000   0.0000   0.0000   0.2974
  15.000   1.7860   0.07538   0.06970  -0.1354  0.0028  1.0000  -5.8285   0.0000   0.0000   0.0000   0.2971
  15.100   1.7859   0.07669   0.07106  -0.1353  0.0029  1.0000  -5.8739   0.0000   0.0000   0.0000   0.2968
  15.200   1.7859   0.07802   0.07241  -0.1352  0.0029  1.0000  -5.9178   0.0000   0.0000   0.0000   0.2964
  15.300   1.7843   0.07956   0.07400  -0.1352  0.0030  1.0000  -5.9530   0.0000   0.0000   0.0000   0.2962
  15.400   1.7822   0.08118   0.07565  -0.1352  0.0030  1.0000  -5.9855   0.0000   0.0000   0.0000   0.2961
  15.500   1.7813   0.08264   0.07715  -0.1352  0.0031  1.0000  -6.0233   0.0000   0.0000   0.0000   0.2959
  15.600   1.7808   0.08405   0.07859  -0.1352  0.0032  1.0000  -6.0631   0.0000   0.0000   0.0000   0.2956
  15.700   1.7804   0.08545   0.08003  -0.1352  0.0032  1.0000  -6.1032   0.0000   0.0000   0.0000   0.2954
  15.800   1.7791   0.08700   0.08163  -0.1352  0.0033  1.0000  -6.1388   0.0000   0.0000   0.0000   0.2952
  15.900   1.7765   0.08881   0.08348  -0.1354  0.0034  1.0000  -6.1670   0.0000   0.0000   0.0000   0.2951
  16.000   1.7753   0.09041   0.08512  -0.1355  0.0034  1.0000  -6.2021   0.0000   0.0000   0.0000   0.2950
  16.100   1.7746   0.09191   0.08666  -0.1356  0.0035  1.0000  -6.2402   0.0000   0.0000   0.0000   0.2948
  16.200   1.7741   0.09339   0.08818  -0.1357  0.0036  1.0000  -6.2790   0.0000   0.0000   0.0000   0.2946
  16.300   1.7739   0.09481   0.08965  -0.1358  0.0037  1.0000  -6.3194   0.0000   0.0000   0.0000   0.2944
  16.400   1.7735   0.09630   0.09119  -0.1359  0.0037  1.0000  -6.3580   0.0000   0.0000   0.0000   0.2943
  16.500   1.7709   0.09819   0.09314  -0.1362  0.0038  1.0000  -6.3844   0.0000   0.0000   0.0000   0.2943
  16.600   1.7691   0.09994   0.09493  -0.1365  0.0039  1.0000  -6.4147   0.0000   0.0000   0.0000   0.2943
  16.700   1.7680   0.10156   0.09661  -0.1368  0.0040  1.0000  -6.4479   0.0000   0.0000   0.0000   0.2942
  16.800   1.7669   0.10317   0.09827  -0.1370  0.0040  1.0000  -6.4806   0.0000   0.0000   0.0000   0.2941
  16.900   1.7656   0.10483   0.09999  -0.1373  0.0041  1.0000  -6.5108   0.0000   0.0000   0.0000   0.2941
  17.000   1.7618   0.10694   0.10217  -0.1377  0.0042  1.0000  -6.5269   0.0000   0.0000   0.0000   0.2942
  17.100   1.7583   0.10900   0.10429  -0.1382  0.0042  1.0000  -6.5429   0.0000   0.0000   0.0000   0.2944
  17.200   1.7555   0.11091   0.10627  -0.1386  0.0043  1.0000  -6.5597   0.0000   0.0000   0.0000   0.2945
  17.300   1.7522   0.11290   0.10834  -0.1391  0.0044  1.0000  -6.5687   0.0000   0.0000   0.0000   0.2946
  17.400   1.7429   0.11594   0.11154  -0.1398  0.0047  1.0000  -6.4921   0.0000   0.0000   0.0000   0.2952
  17.500   1.7398   0.11797   0.11361  -0.1404  0.0047  1.0000  -6.5202   0.0000   0.0000   0.0000   0.2954
  17.600   1.7374   0.11986   0.11554  -0.1410  0.0048  1.0000  -6.5527   0.0000   0.0000   0.0000   0.2956
  17.700   1.7360   0.12156   0.11727  -0.1415  0.0049  1.0000  -6.5917   0.0000   0.0000   0.0000   0.2957
  17.800   1.7349   0.12321   0.11896  -0.1420  0.0050  1.0000  -6.6324   0.0000   0.0000   0.0000   0.2957
  17.900   1.7336   0.12488   0.12067  -0.1425  0.0051  1.0000  -6.6717   0.0000   0.0000   0.0000   0.2958
  18.000   1.7303   0.12694   0.12277  -0.1432  0.0052  1.0000  -6.6963   0.0000   0.0000   0.0000   0.2961
  18.100   1.7266   0.12908   0.12495  -0.1440  0.0052  1.0000  -6.7174   0.0000   0.0000   0.0000   0.2965
  18.200   1.7246   0.13089   0.12681  -0.1447  0.0053  1.0000  -6.7500   0.0000   0.0000   0.0000   0.2967
  18.300   1.7230   0.13263   0.12859  -0.1453  0.0055  1.0000  -6.7849   0.0000   0.0000   0.0000   0.2969
  18.400   1.7213   0.13438   0.13037  -0.1459  0.0056  1.0000  -6.8186   0.0000   0.0000   0.0000   0.2971
  18.500   1.7192   0.13618   0.13222  -0.1466  0.0057  1.0000  -6.8494   0.0000   0.0000   0.0000   0.2973
  18.600   1.7160   0.13822   0.13430  -0.1474  0.0058  1.0000  -6.8707   0.0000   0.0000   0.0000   0.2977
  18.700   1.7110   0.14063   0.13677  -0.1485  0.0059  1.0000  -6.8780   0.0000   0.0000   0.0000   0.2983
  18.800   1.7077   0.14270   0.13889  -0.1494  0.0060  1.0000  -6.8969   0.0000   0.0000   0.0000   0.2987
  18.900   1.7048   0.14469   0.14092  -0.1502  0.0062  1.0000  -6.9172   0.0000   0.0000   0.0000   0.2991
  19.000   1.7018   0.14668   0.14297  -0.1511  0.0063  1.0000  -6.9354   0.0000   0.0000   0.0000   0.2995
  19.100   1.6974   0.14895   0.14530  -0.1522  0.0065  1.0000  -6.9412   0.0000   0.0000   0.0000   0.3001
  19.200   1.6929   0.15117   0.14758  -0.1534  0.0067  1.0000  -6.9438   0.0000   0.0000   0.0000   0.3008
  19.300   1.6911   0.15286   0.14934  -0.1543  0.0071  1.0000  -6.9561   0.0000   0.0000   0.0000   0.3011
  19.400   1.6993   0.15288   0.14945  -0.1538  0.0086  1.0000  -6.9745   0.0000   0.0000   0.0000   0.3000
  19.500   1.6977   0.15447   0.15111  -0.1546  0.0091  1.0000  -6.9721   0.0000   0.0000   0.0000   0.3003
  19.600   1.6945   0.15630   0.15300  -0.1555  0.0094  1.0000  -6.9638   0.0000   0.0000   0.0000   0.3007
  19.700   1.6903   0.15831   0.15508  -0.1565  0.0096  1.0000  -6.9495   0.0000   0.0000   0.0000   0.3012
  19.800   1.6851   0.16049   0.15733  -0.1577  0.0097  1.0000  -6.9281   0.0000   0.0000   0.0000   0.3019
  19.900   1.6787   0.16290   0.15982  -0.1589  0.0098  1.0000  -6.8952   0.0000   0.0000   0.0000   0.3028


